Mol3 51
     RDKit          3D

 20 20  0  0  0  0  0  0  0  0999 V2000
   -2.6574   -0.1152   -1.0242 P   0  0  0  0  0  0  0  0  0  0  0  0
   -1.0762   -0.0723   -0.0410 C   0  0  0  0  0  0  0  0  0  0  0  0
   -0.1730   -1.2544   -0.4149 C   0  0  0  0  0  0  0  0  0  0  0  0
    1.1483   -1.2117    0.3513 C   0  0  0  0  0  0  0  0  0  0  0  0
    1.8682    0.1195    0.1586 C   0  0  0  0  0  0  0  0  0  0  0  0
    0.9731    1.2998    0.5234 C   0  0  0  0  0  0  0  0  0  0  0  0
   -0.3486    1.2631   -0.2423 C   0  0  0  0  0  0  0  0  0  0  0  0
   -3.2239   -1.2500   -0.3968 H   0  0  0  0  0  0  0  0  0  0  0  0
   -3.3693    0.8346   -0.2538 H   0  0  0  0  0  0  0  0  0  0  0  0
   -1.3568   -0.1643    1.0160 H   0  0  0  0  0  0  0  0  0  0  0  0
    0.0403   -1.2478   -1.4924 H   0  0  0  0  0  0  0  0  0  0  0  0
   -0.6785   -2.2050   -0.2023 H   0  0  0  0  0  0  0  0  0  0  0  0
    1.7942   -2.0315    0.0172 H   0  0  0  0  0  0  0  0  0  0  0  0
    0.9556   -1.3717    1.4193 H   0  0  0  0  0  0  0  0  0  0  0  0
    2.7752    0.1406    0.7732 H   0  0  0  0  0  0  0  0  0  0  0  0
    2.1877    0.2134   -0.8866 H   0  0  0  0  0  0  0  0  0  0  0  0
    0.7702    1.2850    1.6014 H   0  0  0  0  0  0  0  0  0  0  0  0
    1.4963    2.2387    0.3100 H   0  0  0  0  0  0  0  0  0  0  0  0
   -0.9786    2.0969    0.0926 H   0  0  0  0  0  0  0  0  0  0  0  0
   -0.1466    1.4324   -1.3086 H   0  0  0  0  0  0  0  0  0  0  0  0
  1  2  1  0
  2  3  1  0
  3  4  1  0
  4  5  1  0
  5  6  1  0
  6  7  1  0
  7  2  1  0
  1  8  1  0
  1  9  1  0
  2 10  1  0
  3 11  1  0
  3 12  1  0
  4 13  1  0
  4 14  1  0
  5 15  1  0
  5 16  1  0
  6 17  1  0
  6 18  1  0
  7 19  1  0
  7 20  1  0
M  END
>  <Energy>  (1) 
3.219400605409477

>  <Real charge>  (1) 
0

$$$$
Mol3 76
     RDKit          3D

 20 20  0  0  0  0  0  0  0  0999 V2000
    2.1974    0.5514    0.8710 P   0  0  0  0  0  0  0  0  0  0  0  0
    1.0523    0.1276   -0.5422 C   0  0  0  0  0  0  0  0  0  0  0  0
    0.4479   -1.2745   -0.3867 C   0  0  0  0  0  0  0  0  0  0  0  0
   -0.6899   -1.3417    0.6334 C   0  0  0  0  0  0  0  0  0  0  0  0
   -1.7600   -0.2918    0.3556 C   0  0  0  0  0  0  0  0  0  0  0  0
   -1.1671    1.1110    0.2845 C   0  0  0  0  0  0  0  0  0  0  0  0
   -0.0326    1.1952   -0.7381 C   0  0  0  0  0  0  0  0  0  0  0  0
    3.2201   -0.3725    0.5506 H   0  0  0  0  0  0  0  0  0  0  0  0
    2.8240    1.6639    0.2608 H   0  0  0  0  0  0  0  0  0  0  0  0
    1.6933    0.1256   -1.4327 H   0  0  0  0  0  0  0  0  0  0  0  0
    1.2176   -2.0110   -0.1247 H   0  0  0  0  0  0  0  0  0  0  0  0
    0.0476   -1.5848   -1.3613 H   0  0  0  0  0  0  0  0  0  0  0  0
   -0.2949   -1.2037    1.6468 H   0  0  0  0  0  0  0  0  0  0  0  0
   -1.1426   -2.3396    0.6076 H   0  0  0  0  0  0  0  0  0  0  0  0
   -2.2618   -0.5243   -0.5918 H   0  0  0  0  0  0  0  0  0  0  0  0
   -2.5255   -0.3293    1.1388 H   0  0  0  0  0  0  0  0  0  0  0  0
   -1.9531    1.8259    0.0150 H   0  0  0  0  0  0  0  0  0  0  0  0
   -0.8027    1.4060    1.2755 H   0  0  0  0  0  0  0  0  0  0  0  0
   -0.4674    1.0621   -1.7379 H   0  0  0  0  0  0  0  0  0  0  0  0
    0.3974    2.2044   -0.7244 H   0  0  0  0  0  0  0  0  0  0  0  0
  1  2  1  0
  2  3  1  0
  3  4  1  0
  4  5  1  0
  5  6  1  0
  6  7  1  0
  7  2  1  0
  1  8  1  0
  1  9  1  0
  2 10  1  0
  3 11  1  0
  3 12  1  0
  4 13  1  0
  4 14  1  0
  5 15  1  0
  5 16  1  0
  6 17  1  0
  6 18  1  0
  7 19  1  0
  7 20  1  0
M  END
>  <Energy>  (2) 
3.8438792056181845

>  <Real charge>  (2) 
0

$$$$
