%mem=24GB
%nprocshared=12
# B3LYP/6-31+G(d,p) NormalPNO TightSCF printbasis

 Pentanol 252

0 1
O           2.57550         1.20910         0.13000
C           2.07750         0.31580        -0.85560
C           0.56480         0.15700        -0.73820
C           0.14450        -0.52540         0.56750
C          -1.34880        -0.85800         0.62100
C          -2.24450         0.37110         0.62330
H           2.49740         0.77040         0.99370
H           2.32910         0.73300        -1.83560
H           2.59300        -0.64510        -0.75720
H           0.10070         1.14820        -0.79360
H           0.20410        -0.43000        -1.59080
H           0.70750        -1.46000         0.68130
H           0.40400         0.10770         1.42400
H          -1.61790        -1.50380        -0.22300
H          -1.54380        -1.43300         1.53410
H          -1.97810         1.05020         1.43920
H          -2.17560         0.91930        -0.32080
H          -3.28950         0.07370         0.75770

