%mem=24GB
%nprocshared=12
# B3LYP/6-31+G(d,p) NormalPNO TightSCF printbasis

 Pentanol 6

0 1
O           2.72490         0.38290        -0.70250
C           2.26320        -0.59830         0.21460
C           0.81130        -0.94940        -0.08640
C          -0.12750         0.24330         0.11740
C          -1.58130        -0.14210        -0.15710
C          -2.51830         1.03800         0.04530
H           3.65160         0.57140        -0.47630
H           2.89230        -1.48810         0.11160
H           2.36960        -0.20890         1.23220
H           0.72950        -1.29100        -1.12550
H           0.50160        -1.77740         0.56170
H           0.16300         1.06540        -0.54760
H          -0.03360         0.61160         1.14630
H          -1.68160        -0.50870        -1.18530
H          -1.88260        -0.95850         0.50960
H          -2.46580         1.40880         1.07390
H          -3.55210         0.74000        -0.15600
H          -2.26430         1.86100        -0.63040

