%mem=24GB
%nprocshared=12
# B3LYP/6-31+G(d,p) NormalPNO TightSCF printbasis

 Pentanol 100

0 1
O           2.52020         0.03660        -0.68150
C           1.66720         0.47460         0.36560
C           0.66730        -0.62060         0.71740
C          -0.21000        -1.08120        -0.45280
C          -1.06320         0.00780        -1.10740
C          -2.04220         0.66960        -0.15040
H           3.14210         0.76110        -0.86520
H           1.16220         1.39270         0.05140
H           2.28570         0.70600         1.23880
H           0.03990        -0.28670         1.55110
H           1.22290        -1.49760         1.07320
H          -0.87050        -1.88060        -0.09370
H           0.42470        -1.53530        -1.22360
H          -1.63210        -0.44770        -1.92710
H          -0.42380         0.77130        -1.56360
H          -2.68820         1.36520        -0.69560
H          -1.52180         1.23970         0.62470
H          -2.68050        -0.07480         0.33590

