%mem=24GB
%nprocshared=12
# B3LYP/6-31+G(d,p) NormalPNO TightSCF printbasis

 Pentanol 43

0 1
O           2.36240         0.91120         1.31320
C           2.09580         0.13880         0.15210
C           1.15110        -1.01710         0.46450
C          -0.22030        -0.60620         1.01140
C          -1.03200         0.24600         0.03550
C          -2.42660         0.52820         0.57330
H           1.55160         1.39840         1.53620
H           1.70080         0.79470        -0.62950
H           3.05120        -0.25780        -0.20630
H           1.01610        -1.62300        -0.43920
H           1.62540        -1.66100         1.21570
H          -0.10090        -0.07150         1.96110
H          -0.78160        -1.52090         1.24090
H          -1.11590        -0.26860        -0.92850
H          -0.52760         1.20110        -0.14600
H          -2.37820         1.06760         1.52470
H          -2.98960         1.14180        -0.13700
H          -2.98170        -0.40170         0.73280

