%mem=24GB
%nprocshared=12
# B3LYP/6-31+G(d,p) NormalPNO TightSCF printbasis

 Pentanol 165

0 1
O          -2.67770         0.22330        -0.30210
C          -2.08840        -0.61780         0.67890
C          -0.58450        -0.71290         0.44680
C           0.11140         0.64190         0.61320
C           1.63690         0.55250         0.52640
C           2.14340         0.13120        -0.84430
H          -3.63220         0.25030        -0.11870
H          -2.54270        -1.61050         0.59910
H          -2.30730        -0.21060         1.67120
H          -0.40760        -1.08870        -0.56730
H          -0.15900        -1.43620         1.15170
H          -0.25540         1.34810        -0.14140
H          -0.15130         1.06100         1.59240
H           2.01380        -0.14390         1.28450
H           2.05620         1.53730         0.76490
H           1.75620         0.79170        -1.62660
H           3.23680         0.17900        -0.87140
H           1.85150        -0.89590        -1.08170

