%mem=24GB
%nprocshared=12
# B3LYP/6-31+G(d,p) NormalPNO TightSCF printbasis

 Pentanol 138

0 1
O           2.58430        -0.99460        -1.29990
C           1.42270        -0.99340        -0.47900
C           1.07340         0.43760        -0.08530
C          -0.17010         0.53780         0.80040
C          -1.46940         0.83630         0.04710
C          -1.89980        -0.25160        -0.92110
H           3.30760        -0.59820        -0.78480
H           1.62510        -1.60820         0.40410
H           0.61860        -1.46850        -1.04460
H           1.92940         0.84980         0.46520
H           0.97620         1.06540        -0.97920
H          -0.28650        -0.36670         1.40920
H          -0.01360         1.36390         1.50610
H          -2.26780         0.97840         0.78570
H          -1.37340         1.78480        -0.49460
H          -2.89940        -0.03270        -1.31060
H          -1.22230        -0.31180        -1.77760
H          -1.93490        -1.22840        -0.42900

