%mem=24GB
%nprocshared=12
# B3LYP/6-31+G(d,p) NormalPNO TightSCF printbasis

 Pentanol 109

0 1
O          -3.20060        -0.70080         0.10240
C          -1.91260        -0.31000        -0.35650
C          -1.08830         0.15190         0.83760
C           0.28890         0.69770         0.45960
C           1.21640        -0.36070        -0.13830
C           2.60540         0.20240        -0.39820
H          -3.70630        -0.98670        -0.67740
H          -2.03400         0.49880        -1.08380
H          -1.45280        -1.17050        -0.85070
H          -1.64540         0.93260         1.37120
H          -0.98490        -0.67360         1.55300
H           0.17340         1.53030        -0.24510
H           0.75310         1.11180         1.36330
H           0.80810        -0.73510        -1.08310
H           1.29690        -1.21450         0.54430
H           3.06700         0.55320         0.53030
H           3.25240        -0.56840        -0.82850
H           2.56330         1.04150        -1.10000

