%mem=24GB
%nprocshared=12
# B3LYP/6-31+G(d,p) NormalPNO TightSCF printbasis

 Pentanol 183

0 1
O          -1.50970        -1.29680        -0.86750
C          -1.85210         0.07750        -0.77680
C          -0.96590         0.81060         0.22560
C           0.45220         1.10220        -0.28140
C           1.34320        -0.11090        -0.55440
C           1.59680        -0.96930         0.67490
H          -1.61130        -1.68350         0.01880
H          -2.90000         0.13800        -0.46530
H          -1.77320         0.52180        -1.77380
H          -0.91700         0.25210         1.16670
H          -1.43740         1.77500         0.45170
H           0.95270         1.74210         0.45670
H           0.38350         1.69600        -1.20150
H           2.30960         0.25260        -0.92520
H           0.92260        -0.72590        -1.35640
H           0.68030        -1.45030         1.02760
H           2.01010        -0.37090         1.49290
H           2.31560        -1.76030         0.43820

