%mem=24GB
%nprocshared=12
# B3LYP/6-31+G(d,p) NormalPNO TightSCF printbasis

 Pentanol 313

0 1
O           2.88440         0.76170         0.14780
C           1.70480         0.09060        -0.27660
C           0.86140        -0.23640         0.94800
C          -0.39030        -1.05630         0.63210
C          -1.38560        -0.40070        -0.32810
C          -1.93460         0.92410         0.17750
H           3.40500         0.95520        -0.65040
H           1.99600        -0.82240        -0.80550
H           1.16900         0.74910        -0.96610
H           1.47810        -0.79700         1.66250
H           0.59520         0.69060         1.46980
H          -0.08490        -2.02160         0.20930
H          -0.90350        -1.28250         1.57510
H          -0.92750        -0.25550        -1.31250
H          -2.22480        -1.09090        -0.47740
H          -1.15310         1.68780         0.23080
H          -2.71120         1.29210        -0.50070
H          -2.37860         0.81190         1.17160

