%mem=24GB
%nprocshared=12
# B3LYP/6-31+G(d,p) NormalPNO TightSCF printbasis

 Pentanol 176

0 1
O          -2.83520        -0.48240        -0.68580
C          -2.37790         0.34870         0.37120
C          -0.97720         0.87940         0.08560
C           0.08260        -0.22590         0.07170
C           1.48250         0.35190        -0.13980
C           2.53970        -0.74080        -0.15580
H          -2.32100        -1.30660        -0.65820
H          -2.41190        -0.21650         1.30820
H          -3.07790         1.18560         0.45790
H          -0.97320         1.38610        -0.88710
H          -0.71900         1.62290         0.84880
H          -0.13550        -0.94430        -0.72700
H           0.05200        -0.77570         1.02010
H           1.51910         0.90170        -1.08740
H           1.71580         1.06550         0.65890
H           2.35420        -1.45430        -0.96500
H           2.55070        -1.28990         0.79120
H           3.53230        -0.30550        -0.30760

