%mem=24GB
%nprocshared=12
# B3LYP/6-31+G(d,p) NormalPNO TightSCF printbasis

 Pentanol 288

0 1
O           2.86400        -0.38670        -0.27800
C           2.10290         0.38040         0.64370
C           0.69550         0.60220         0.10070
C          -0.08550        -0.70960        -0.03130
C          -1.47680        -0.52690        -0.64260
C          -2.42430         0.28000         0.23160
H           3.75010        -0.49790         0.10640
H           2.07450        -0.14580         1.60320
H           2.60470         1.34280         0.78550
H           0.16820         1.28860         0.77140
H           0.75900         1.07820        -0.88510
H           0.47490        -1.40540        -0.66740
H          -0.17640        -1.18550         0.95270
H          -1.39290        -0.05080        -1.62640
H          -1.91570        -1.51830        -0.80710
H          -2.09530         1.31870         0.32820
H          -3.42560         0.29040        -0.21080
H          -2.50130        -0.15440         1.23330

