%mem=24GB
%nprocshared=12
# B3LYP/6-31+G(d,p) NormalPNO TightSCF printbasis

 Pentanol 149

0 1
O           1.88190        -0.82970        -1.07120
C           2.04670         0.37780        -0.34300
C           1.20630         0.38120         0.93010
C          -0.29160         0.61670         0.70010
C          -0.99700        -0.51250        -0.05040
C          -2.50300        -0.29820        -0.08570
H           2.12980        -1.56350        -0.48340
H           3.10840         0.46980        -0.09150
H           1.78230         1.21610        -0.99480
H           1.57230         1.18660         1.57840
H           1.34260        -0.56170         1.47280
H          -0.76560         0.74070         1.68210
H          -0.43550         1.56210         0.16270
H          -0.78230        -1.47390         0.42990
H          -0.63300        -0.56930        -1.08120
H          -2.92040        -0.27530         0.92610
H          -2.75330         0.64450        -0.58280
H          -2.98860        -1.11130        -0.63440

