%mem=24GB
%nprocshared=12
# B3LYP/6-31+G(d,p) NormalPNO TightSCF printbasis

 Pentanol 79

0 1
O           2.19920        -0.22540         1.39710
C           1.79700         0.89260         0.61910
C           1.15940         0.44530        -0.69220
C          -0.04880        -0.48310        -0.52740
C          -1.22810         0.17950         0.18540
C          -2.43990        -0.73920         0.22380
H           2.81860        -0.74820         0.85990
H           2.68120         1.50680         0.41960
H           1.10580         1.49530         1.21490
H           0.87070         1.32840        -1.27400
H           1.91210        -0.09480        -1.28000
H           0.24780        -1.39070         0.01200
H          -0.36890        -0.80520        -1.52630
H          -1.49870         1.10980        -0.32690
H          -0.95400         0.43990         1.21330
H          -2.77200        -0.99370        -0.78770
H          -3.27090        -0.24880         0.74040
H          -2.21050        -1.66870         0.75480

