%mem=24GB
%nprocshared=12
# B3LYP/6-31+G(d,p) NormalPNO TightSCF printbasis

 Pentanol 42

0 1
O          -2.13320         1.06840        -1.21750
C          -1.60020         0.72630         0.05490
C          -1.05560        -0.69820         0.02220
C           0.11570        -0.89920        -0.94850
C           1.50230        -0.78300        -0.30800
C           1.82900         0.59540         0.23920
H          -2.47900         1.97450        -1.14770
H          -2.40740         0.79640         0.79110
H          -0.82960         1.45440         0.31690
H          -0.77490        -1.01520         1.03270
H          -1.87050        -1.35610        -0.30680
H           0.03950        -1.91500        -1.35790
H           0.04150        -0.21910        -1.80470
H           2.25150        -1.04110        -1.06640
H           1.60290        -1.52360         0.49420
H           1.22280         0.82720         1.11940
H           1.66590         1.37020        -0.51630
H           2.87920         0.63760         0.54600

