%mem=24GB
%nprocshared=12
# B3LYP/6-31+G(d,p) NormalPNO TightSCF printbasis

 Pentanol 74

0 1
O           2.93370         0.02770        -0.65610
C           2.12580         0.80400         0.21670
C           0.65360         0.72040        -0.17540
C           0.06570        -0.67860         0.03520
C          -1.40430        -0.78590        -0.37860
C          -2.34330         0.03640         0.49040
H           2.76380        -0.90930        -0.46240
H           2.46710         1.84130         0.14330
H           2.28900         0.46850         1.24610
H           0.54410         0.99590        -1.23120
H           0.09830         1.45210         0.42060
H           0.63330        -1.40680        -0.55580
H           0.17370        -0.97090         1.08680
H          -1.52030        -0.48660        -1.42670
H          -1.70580        -1.83840        -0.31470
H          -2.22350        -0.21730         1.54840
H          -2.16770         1.10910         0.36890
H          -3.38310        -0.16160         0.21050

