%mem=24GB
%nprocshared=12
# B3LYP/6-31+G(d,p) NormalPNO TightSCF printbasis

 Pentanol 69

0 1
O          -2.74340         1.19980         0.09200
C          -1.62720         0.54330        -0.49650
C          -1.02180        -0.43480         0.50430
C           0.16700        -1.21900        -0.05470
C           1.53840        -0.62070         0.27100
C           1.78960         0.74700        -0.33920
H          -2.42030         1.68390         0.87100
H          -0.91460         1.30620        -0.81760
H          -1.98230         0.01480        -1.38670
H          -1.80900        -1.14510         0.78990
H          -0.75190         0.08440         1.43180
H           0.14400        -2.22340         0.38770
H           0.06450        -1.35930        -1.13730
H           2.30800        -1.31060        -0.09610
H           1.66680        -0.56030         1.35830
H           2.83280         1.04090        -0.18380
H           1.59660         0.74160        -1.41630
H           1.16270         1.51160         0.12830

