%mem=24GB
%nprocshared=12
# B3LYP/6-31+G(d,p) NormalPNO TightSCF printbasis

 Mol3 76

0 1
P           2.19740         0.55140         0.87100
C           1.05230         0.12760        -0.54220
C           0.44790        -1.27450        -0.38670
C          -0.68990        -1.34170         0.63340
C          -1.76000        -0.29180         0.35560
C          -1.16710         1.11100         0.28450
C          -0.03260         1.19520        -0.73810
H           3.22010        -0.37250         0.55060
H           2.82400         1.66390         0.26080
H           1.69330         0.12560        -1.43270
H           1.21760        -2.01100        -0.12470
H           0.04760        -1.58480        -1.36130
H          -0.29490        -1.20370         1.64680
H          -1.14260        -2.33960         0.60760
H          -2.26180        -0.52430        -0.59180
H          -2.52550        -0.32930         1.13880
H          -1.95310         1.82590         0.01500
H          -0.80270         1.40600         1.27550
H          -0.46740         1.06210        -1.73790
H           0.39740         2.20440        -0.72440

