%mem=24GB
%nprocshared=12
# B3LYP/6-31+G(d,p) NormalPNO TightSCF printbasis

 Mol3 51

0 1
P          -2.65740        -0.11520        -1.02420
C          -1.07620        -0.07230        -0.04100
C          -0.17300        -1.25440        -0.41490
C           1.14830        -1.21170         0.35130
C           1.86820         0.11950         0.15860
C           0.97310         1.29980         0.52340
C          -0.34860         1.26310        -0.24230
H          -3.22390        -1.25000        -0.39680
H          -3.36930         0.83460        -0.25380
H          -1.35680        -0.16430         1.01600
H           0.04030        -1.24780        -1.49240
H          -0.67850        -2.20500        -0.20230
H           1.79420        -2.03150         0.01720
H           0.95560        -1.37170         1.41930
H           2.77520         0.14060         0.77320
H           2.18770         0.21340        -0.88660
H           0.77020         1.28500         1.60140
H           1.49630         2.23870         0.31000
H          -0.97860         2.09690         0.09260
H          -0.14660         1.43240        -1.30860

