%mem=24GB
%nprocshared=12
# B3LYP/6-31+G(d,p) NormalPNO TightSCF printbasis

 Mol2 258

0 1
C          -1.77710        -2.47410         1.10060
C          -0.90770        -1.96520        -0.04140
C          -0.58290        -0.46660         0.06470
C           0.38820        -0.06160        -1.01480
C           1.54150         0.58840        -0.77920
C           2.51190         0.99820        -1.84320
S           3.99880        -0.04200        -1.78120
C           4.80420         0.66950        -0.32490
N          -1.75800         0.36020        -0.12730
C          -2.46700         0.88290         0.92810
C          -3.68550         1.66680         0.52000
O          -2.16380         0.72420         2.10570
H          -1.90860        -3.55770         1.01770
H          -2.77100        -2.01760         1.08080
H          -1.31580        -2.26280         2.07050
H           0.02670        -2.54100        -0.04170
H          -1.41430        -2.18090        -0.99100
H          -0.15510        -0.26240         1.05390
H           0.13480        -0.34150        -2.03540
H           1.79080         0.86930         0.24220
H           2.78090         2.05340        -1.73190
H           2.06900         0.88420        -2.83840
H           4.95670         1.74370        -0.45800
H           5.78100         0.19660        -0.19220
H           4.21190         0.48800         0.57510
H          -2.12590         0.45660        -1.06330
H          -4.57800         1.06550         0.71120
H          -3.65630         1.93620        -0.53950
H          -3.72950         2.58970         1.10490

