%mem=24GB
%nprocshared=12
# B3LYP/6-31+G(d,p) NormalPNO TightSCF printbasis

 Mol2 311

0 1
C          -1.46980        -2.72260         0.28450
C          -1.96070        -1.36090        -0.18920
C          -1.11500        -0.19530         0.35040
C           0.29760        -0.22030        -0.17490
C           1.39090        -0.11910         0.60300
C           2.84490        -0.13250         0.21850
S           3.16320        -0.09840        -1.56540
C           4.97000        -0.13790        -1.51680
N          -1.66990         1.08280        -0.05210
C          -2.73860         1.64630         0.60280
C          -3.21590         2.94080         0.00140
O          -3.27920         1.14820         1.58480
H          -0.46620        -2.94190        -0.09260
H          -1.44720        -2.77190         1.37780
H          -2.14020        -3.50950        -0.07580
H          -1.97740        -1.34440        -1.28670
H          -3.00240        -1.23900         0.13260
H          -1.12020        -0.23420         1.44720
H           0.40090        -0.34290        -1.25050
H           1.23390        -0.00670         1.67630
H           3.30840        -1.02810         0.64530
H           3.32470         0.74470         0.66550
H           5.35810        -0.12210        -2.53870
H           5.31840        -1.05120        -1.02740
H           5.35640         0.73560        -0.98530
H          -1.35030         1.49160        -0.91970
H          -2.48460         3.35590        -0.69770
H          -4.15520         2.76370        -0.52890
H          -3.37480         3.66940         0.80130

