%mem=24GB
%nprocshared=12
# B3LYP/6-31+G(d,p) NormalPNO TightSCF printbasis

 Mol2 539

0 1
C          -1.73030         1.71400        -1.54710
C          -0.65650         0.63140        -1.53910
C          -0.23080         0.13250        -0.14420
C           0.44400         1.18880         0.69180
C           1.55470         1.04320         1.43730
C           2.34950        -0.20780         1.66090
S           4.00810        -0.02870         0.94260
C           3.59580        -0.24710        -0.80610
N          -1.34640        -0.36490         0.63330
C          -1.88470        -1.60940         0.40580
C          -3.09090        -1.92230         1.24970
O          -1.44240        -2.40390        -0.41710
H          -1.38370         2.63390        -1.06850
H          -2.64050         1.37970        -1.04010
H          -1.99790         1.96260        -2.57950
H          -1.03420        -0.21870        -2.12120
H           0.22530         1.00560        -2.07440
H           0.45390        -0.70560        -0.31490
H          -0.00810         2.17870         0.67910
H           1.91830         1.91800         1.97690
H           2.46550        -0.35590         2.73990
H           1.87040        -1.11000         1.27290
H           2.96420         0.57080        -1.16140
H           4.51880        -0.24550        -1.39220
H           3.08890        -1.20260        -0.96410
H          -1.84310         0.28340         1.22900
H          -3.18790        -1.22770         2.08870
H          -3.98800        -1.85880         0.62840
H          -2.99190        -2.93360         1.65380

