%mem=24GB
%nprocshared=12
# B3LYP/6-31+G(d,p) NormalPNO TightSCF printbasis

 Mol2 195

0 1
C          -1.36130        -1.82310         1.38390
C          -0.86380        -0.41560         1.69990
C          -0.52130         0.44890         0.46890
C           0.70430         0.08080        -0.33640
C           1.63380        -0.85260        -0.06040
C           2.86270        -1.22340        -0.84650
S           3.41590        -0.00690        -2.06940
C           4.10680         1.23790        -0.95080
N          -1.62400         0.49050        -0.47480
C          -2.73340         1.27350        -0.25770
C          -3.81580         1.10290        -1.28940
O          -2.85570         2.03840         0.69300
H          -1.53640        -2.37200         2.31510
H          -2.30860        -1.79540         0.83650
H          -0.64210        -2.39360         0.79120
H           0.00640        -0.47770         2.36430
H          -1.64840         0.08820         2.27900
H          -0.36020         1.47350         0.82990
H           0.82630         0.68650        -1.23450
H           1.52310        -1.44950         0.84270
H           2.66620        -2.16560        -1.36920
H           3.69060        -1.41350        -0.15480
H           4.90140         0.80220        -0.33950
H           3.33200         1.65720        -0.30450
H           4.53490         2.05050        -1.54390
H          -1.67280        -0.24160        -1.17070
H          -4.20000         2.08710        -1.57130
H          -4.62220         0.49900        -0.86530
H          -3.43850         0.61310        -2.19150

