%mem=24GB
%nprocshared=12
# B3LYP/6-31+G(d,p) NormalPNO TightSCF printbasis

 Mol2 187

0 1
C          -2.25020        -1.86170         1.08950
C          -0.88670        -1.29380         1.46780
C          -0.15860        -0.52950         0.34660
C           0.15370        -1.38440        -0.85410
C           1.36440        -1.64250        -1.38110
C           2.70290        -1.18250        -0.88820
S           3.43210        -0.00410        -2.06130
C           2.44510         1.45890        -1.65610
N          -0.92860         0.60000        -0.13780
C          -0.95030         1.79930         0.53430
C          -1.88010         2.82210        -0.06100
O          -0.28310         2.03250         1.53640
H          -2.70740        -2.34120         1.96140
H          -2.16870        -2.61850         0.30410
H          -2.93070        -1.07620         0.74720
H          -1.02640        -0.62330         2.32520
H          -0.24940        -2.11610         1.81670
H           0.76190        -0.12880         0.78250
H          -0.70210        -1.82890        -1.36020
H           1.40170        -2.27910        -2.26560
H           2.67850        -0.74360         0.11170
H           3.36670        -2.05180        -0.82860
H           1.40550         1.31940        -1.96120
H           2.49400         1.67380        -0.58550
H           2.84630         2.31920        -2.19870
H          -1.60880         0.43860        -0.86780
H          -1.36170         3.78300        -0.12280
H          -2.19850         2.54100        -1.06860
H          -2.76190         2.91820         0.57780

