%mem=24GB
%nprocshared=12
# B3LYP/6-31+G(d,p) NormalPNO TightSCF printbasis

 Mol2 445

0 1
C          -1.78730         2.72250         1.51320
C          -1.03870         1.40990         1.70430
C          -0.45920         0.86250         0.39060
C           0.32720        -0.40370         0.59950
C           1.62890        -0.55400         0.29770
C           2.39170        -1.82690         0.50570
S           2.94460        -2.49150        -1.09310
C           4.40570        -1.45740        -1.35650
N          -1.43060         0.60600        -0.66000
C          -2.55320        -0.17750        -0.51110
C          -3.31860        -0.38240        -1.79180
O          -2.91520        -0.68880         0.54250
H          -1.14060         3.48040         1.05970
H          -2.66690         2.59240         0.87540
H          -2.12890         3.10470         2.48040
H          -0.21770         1.58230         2.41240
H          -1.70550         0.68530         2.18420
H           0.20510         1.63290        -0.02280
H          -0.22750        -1.24240         1.02030
H           2.18160         0.28830        -0.11080
H           1.76420        -2.58770         0.98200
H           3.24990        -1.65690         1.16340
H           4.12550        -0.40610        -1.45680
H           4.90130        -1.76960        -2.27980
H           5.11150        -1.57490        -0.53010
H          -1.10560         0.76470        -1.60380
H          -4.39070        -0.34790        -1.57840
H          -3.05790        -1.35660        -2.21340
H          -3.09300         0.39920        -2.52280

