%mem=24GB
%nprocshared=12
# B3LYP/6-31+G(d,p) NormalPNO TightSCF printbasis

 Mol2 59

0 1
C           1.59600        -2.50480         0.62410
C           0.67180        -1.33220         0.92850
C           0.36810        -0.46390        -0.30620
C          -0.67600         0.60930        -0.10140
C          -1.19550         1.04340         1.06070
C          -2.24320         2.11010         1.16270
S          -3.72980         1.45650         1.97560
C          -4.34630         0.38870         0.64970
N           1.55140         0.24530        -0.75540
C           2.32370        -0.19640        -1.80260
C           3.54430         0.64480        -2.06360
O           2.06800        -1.19240        -2.47070
H           1.18940        -3.12830        -0.17840
H           1.71120        -3.13190         1.51400
H           2.59240        -2.16330         0.32890
H           1.13000        -0.72760         1.72130
H          -0.26560        -1.73780         1.32940
H           0.00850        -1.11970        -1.10890
H          -1.04080         1.04960        -1.02980
H          -0.85200         0.62950         2.00610
H          -1.85450         2.93060         1.77450
H          -2.51220         2.53020         0.18810
H          -3.66140        -0.44380         0.47050
H          -5.31440        -0.02360         0.94680
H          -4.48340         0.96130        -0.27120
H           1.87680         1.01670        -0.18890
H           4.42990         0.10690        -1.71530
H           3.62530         0.83370        -3.13760
H           3.48840         1.60900        -1.55090

