%mem=24GB
%nprocshared=12
# B3LYP/6-31+G(d,p) NormalPNO TightSCF printbasis

 Mol2 349

0 1
C          -1.53960        -2.53950         1.02370
C          -0.46830        -1.82140         0.21240
C          -0.45150        -0.29800         0.43760
C           0.69770         0.44050        -0.21210
C           1.58210        -0.03020        -1.11150
C           2.73180         0.68750        -1.76560
S           3.30570         2.18690        -0.92660
C           4.13340         1.42890         0.49400
N          -1.64770         0.32730        -0.09460
C          -2.73170         0.63870         0.69010
C          -3.88200         1.24880        -0.06490
O          -2.78650         0.43110         1.89750
H          -1.43850        -2.31980         2.09110
H          -2.54510        -2.25290         0.70200
H          -1.44660        -3.62230         0.89130
H          -0.62640        -2.05150        -0.84880
H           0.50450        -2.24270         0.49540
H          -0.39290        -0.10890         1.51680
H           0.78200         1.47510         0.12060
H           1.48120        -1.05870        -1.45320
H           3.58110         0.00160        -1.85620
H           2.43570         0.95860        -2.78460
H           3.42090         0.88430         1.11810
H           4.58910         2.21570         1.10130
H           4.92330         0.75180         0.15860
H          -1.70080         0.46360        -1.09490
H          -4.67800         0.50620        -0.16430
H          -3.58030         1.58320        -1.06130
H          -4.25270         2.11620         0.48830

