%mem=24GB
%nprocshared=12
# B3LYP/6-31+G(d,p) NormalPNO TightSCF printbasis

 Mol2 452

0 1
C          -1.67890        -2.64980        -1.13990
C          -2.02570        -1.16660        -1.11510
C          -1.20270        -0.37360        -0.08440
C           0.26460        -0.35540        -0.43230
C           1.24960        -0.58510         0.45310
C           2.70850        -0.57180         0.11630
S           3.48300         0.84930         0.93870
C           5.18590         0.57440         0.39780
N          -1.61570         1.01660        -0.02230
C          -2.78580         1.38980         0.59830
C          -2.98800         2.87940         0.67620
O          -3.59760         0.59870         1.06630
H          -0.64530        -2.81660        -1.45790
H          -1.81390        -3.09970        -0.15120
H          -2.33230        -3.17620        -1.84310
H          -3.09510        -1.07000        -0.89310
H          -1.88590        -0.74580        -2.11930
H          -1.35780        -0.81050         0.91050
H           0.51540        -0.13500        -1.46830
H           0.99700        -0.80270         1.49000
H           2.86790        -0.49380        -0.96400
H           3.16960        -1.50000         0.46820
H           5.82570         1.35990         0.80860
H           5.24970         0.60970        -0.69290
H           5.54860        -0.39210         0.75720
H          -0.90630         1.72570        -0.15560
H          -2.34620         3.40970        -0.03300
H          -4.02860         3.11260         0.43360
H          -2.76000         3.21930         1.68960

