%mem=24GB
%nprocshared=12
# B3LYP/6-31+G(d,p) NormalPNO TightSCF printbasis

 Mol2 100

0 1
C          -2.21500         2.57400        -1.08500
C          -1.02470         2.08000        -0.27380
C          -0.66700         0.61090        -0.55150
C           0.59840         0.23200         0.17670
C           1.64520        -0.38010        -0.40680
C           2.95720        -0.81320         0.18730
S           3.09930        -0.58170         1.97930
C           4.77750        -1.21660         2.19990
N          -1.68750        -0.29960        -0.07160
C          -2.65670        -0.81910        -0.89520
C          -3.63960        -1.71920        -0.19540
O          -2.74450        -0.57300        -2.09360
H          -3.13530         2.05500        -0.80160
H          -2.04830         2.42860        -2.15690
H          -2.37060         3.64330        -0.90910
H          -0.16220         2.71550        -0.51240
H          -1.24200         2.22610         0.79220
H          -0.53910         0.47180        -1.63210
H           0.63650         0.49240         1.23170
H           1.55870        -0.61710        -1.46800
H           3.76080        -0.25570        -0.30510
H           3.09750        -1.87700        -0.03180
H           5.48960        -0.62050         1.62340
H           4.83380        -2.26250         1.88700
H           5.04950        -1.15550         3.25700
H          -1.71420        -0.50520         0.91760
H          -4.59020        -1.19120        -0.08330
H          -3.78680        -2.62200        -0.79460
H          -3.28070        -2.02040         0.79260

