%mem=24GB
%nprocshared=12
# B3LYP/6-31+G(d,p) NormalPNO TightSCF printbasis

 Mol2 524

0 1
C          -0.35500        -2.99700         0.17990
C          -1.45310        -2.00520        -0.18040
C          -1.01220        -0.54140        -0.03660
C           0.06320        -0.16680        -1.02390
C           1.20450         0.45590        -0.68100
C           2.28080         0.84150        -1.64620
S           3.72770        -0.23790        -1.44650
C           4.39860         0.44160         0.09110
N          -2.13030         0.34660        -0.29590
C          -2.30150         1.51900         0.40540
C          -3.43530         2.37110        -0.09950
O          -1.60410         1.86580         1.35290
H           0.00520        -2.82910         1.19980
H          -0.73930        -4.02040         0.12110
H           0.49580        -2.92060        -0.50400
H          -1.79860        -2.20470        -1.20310
H          -2.31510        -2.18620         0.47450
H          -0.66310        -0.37940         0.99070
H          -0.10340        -0.44070        -2.06320
H           1.35630         0.74050         0.35890
H           1.93170         0.74000        -2.67930
H           2.56560         1.88910        -1.50620
H           5.34710        -0.05440         0.31480
H           4.58670         1.51330        -0.01340
H           3.71590         0.26460         0.92560
H          -2.61990         0.23660        -1.17290
H          -4.00830         2.74610         0.75320
H          -3.02640         3.21070        -0.66750
H          -4.11340         1.80130        -0.74100

