%mem=24GB
%nprocshared=12
# B3LYP/6-31+G(d,p) NormalPNO TightSCF printbasis

 Mol2 420

0 1
C          -0.90610        -2.33950         0.04480
C          -0.92150        -1.28470         1.14590
C          -0.70360         0.16370         0.66960
C           0.64050         0.37670         0.02320
C           1.55280         1.26510         0.45880
C           2.91260         1.55450        -0.11170
S           3.69290         0.16380        -0.97690
C           4.06340        -0.89360         0.44530
N          -1.70280         0.58960        -0.28930
C          -2.97150         0.94780         0.10050
C          -3.89290         1.28490        -1.04080
O          -3.34440         0.98170         1.26840
H          -1.66440        -2.13480        -0.71700
H          -1.12050        -3.32480         0.47180
H           0.07080        -2.39940        -0.44350
H          -0.15290        -1.54080         1.88610
H          -1.88590        -1.35160         1.66440
H          -0.79750         0.81310         1.55000
H           0.86180        -0.23000        -0.85150
H           1.29630         1.88170         1.32030
H           2.83190         2.39740        -0.80600
H           3.58430         1.87100         0.69360
H           4.60310        -1.77910         0.09880
H           4.69620        -0.36300         1.16140
H           3.14510        -1.22360         0.93700
H          -1.51050         0.45960        -1.27310
H          -4.58950         0.45680        -1.19470
H          -3.33950         1.46320        -1.96700
H          -4.44840         2.19440        -0.79540

