%mem=24GB
%nprocshared=12
# B3LYP/6-31+G(d,p) NormalPNO TightSCF printbasis

 Mol2 501

0 1
C          -3.27190        -1.54850         0.38350
C          -1.78490        -1.47360         0.70530
C          -1.20500        -0.05160         0.58810
C           0.22580        -0.03280         1.08610
C           1.30510         0.51380         0.49550
C           2.68690         0.48570         1.07410
S           3.76220        -0.46590        -0.03830
C           5.30670        -0.31040         0.88820
N          -1.24280         0.41010        -0.78620
C          -2.22180         1.25260        -1.25450
C          -2.11830         1.55190        -2.72580
O          -3.11930         1.71700        -0.55970
H          -3.46770        -1.30980        -0.66590
H          -3.84510        -0.85880         1.01100
H          -3.64440        -2.56150         0.56700
H          -1.24510        -2.16030         0.04040
H          -1.64220        -1.84550         1.72810
H          -1.78950         0.62710         1.22070
H           0.36630        -0.51750         2.05230
H           1.20440         1.04200        -0.44970
H           3.06340         1.50970         1.16200
H           2.69680         0.02480         2.06700
H           6.10170        -0.83780         0.35440
H           5.59020         0.74110         0.98260
H           5.20170        -0.75450         1.88150
H          -0.62210        -0.04150        -1.44430
H          -1.12730         1.30640        -3.11790
H          -2.87040         0.96880        -3.26330
H          -2.29340         2.61920        -2.88720

