%mem=24GB
%nprocshared=12
# B3LYP/6-31+G(d,p) NormalPNO TightSCF printbasis

 Mol2 255

0 1
C          -1.37760        -2.28790        -1.71910
C          -1.65690        -0.85180        -1.29560
C          -1.25540        -0.56370         0.16320
C           0.21560        -0.62540         0.49660
C           1.25290        -0.45300        -0.34190
C           2.69040        -0.51630         0.07600
S           3.43280         1.12560        -0.15120
C           5.10920         0.73830         0.40410
N          -1.67360         0.77010         0.55390
C          -2.96820         1.04640         0.92270
C          -3.23330         2.50330         1.19160
O          -3.84750         0.19680         1.01980
H          -1.89430        -2.99560        -1.06290
H          -1.73500        -2.45340        -2.74060
H          -0.30890        -2.51850        -1.69930
H          -2.73190        -0.66770        -1.41870
H          -1.15800        -0.15860        -1.98370
H          -1.77660        -1.28620         0.80480
H           0.42270        -0.81470         1.54980
H           1.07670        -0.25240        -1.39620
H           3.21620        -1.24760        -0.54590
H           2.79010        -0.81570         1.12430
H           5.72810         1.63680         0.33530
H           5.55050        -0.03660        -0.22810
H           5.09810         0.40320         1.44440
H          -1.05090         1.53650         0.33290
H          -2.30390         3.06900         1.30270
H          -3.80310         2.59760         2.12020
H          -3.80820         2.92140         0.36120

