%mem=24GB
%nprocshared=12
# B3LYP/6-31+G(d,p) NormalPNO TightSCF printbasis

 Mol2 75

0 1
C          -1.95960        -2.95180        -0.48070
C          -1.84560        -1.47180        -0.82250
C          -1.02090        -0.66060         0.19680
C           0.45080        -1.01820         0.16820
C           1.51270        -0.19000         0.14150
C           2.93750        -0.65710         0.12390
S           3.72110        -0.38880         1.73910
C           3.94610         1.40530         1.67550
N          -1.17990         0.75860        -0.07370
C          -2.25820         1.46310         0.41050
C          -2.32300         2.88740        -0.07160
O          -3.10950         0.98940         1.15500
H          -2.63630        -3.44680        -1.18480
H          -0.99280        -3.45890        -0.54300
H          -2.36120        -3.09160         0.52790
H          -2.86250        -1.06250        -0.87770
H          -1.41870        -1.36340        -1.82800
H          -1.40170        -0.86540         1.20500
H           0.65610        -2.08660         0.22500
H           1.36600         0.88590         0.13060
H           2.99360        -1.72830        -0.09780
H           3.49930        -0.14000        -0.66050
H           4.51850         1.68870         0.78840
H           4.50190         1.72560         2.56100
H           2.98170         1.91890         1.67400
H          -0.68520         1.13450        -0.86990
H          -2.58720         3.53760         0.76710
H          -1.36080         3.22030        -0.47070
H          -3.08230         2.96650        -0.85380

