%mem=24GB
%nprocshared=12
# B3LYP/6-31+G(d,p) NormalPNO TightSCF printbasis

 Mol2 362

0 1
C          -2.27620         2.92710         0.38070
C          -0.92770         2.25990         0.13940
C          -1.06690         0.78700        -0.27450
C           0.28220         0.22710        -0.66540
C           1.01850        -0.69550        -0.01820
C           2.35150        -1.19270        -0.48850
S           3.62730        -0.63730         0.67730
C           5.05880        -1.41940        -0.10140
N          -1.64650        -0.00200         0.79810
C          -2.41130        -1.12610         0.69010
C          -2.92640        -1.50980        -0.66930
O          -2.67110        -1.78580         1.69450
H          -2.90640         2.87040        -0.51250
H          -2.13400         3.98380         0.62860
H          -2.81200         2.45750         1.21140
H          -0.32220         2.34590         1.05090
H          -0.40280         2.81880        -0.64580
H          -1.71900         0.72250        -1.15210
H           0.68550         0.64920        -1.58590
H           0.65410        -1.14040         0.90570
H           2.58890        -0.81540        -1.48840
H           2.33580        -2.28650        -0.52630
H           5.19530        -1.03890        -1.11700
H           4.93240        -2.50480        -0.12830
H           5.95580        -1.18860         0.47940
H          -1.28110         0.13860         1.73220
H          -3.56150        -0.71450        -1.06800
H          -2.09380        -1.70950        -1.34840
H          -3.52710        -2.42040        -0.58500

