%mem=24GB
%nprocshared=12
# B3LYP/6-31+G(d,p) NormalPNO TightSCF printbasis

 Mol2 166

0 1
C           0.49110         0.07780         2.81450
C          -0.82970         0.06570         2.05430
C          -0.63300         0.07630         0.52880
C          -0.04320        -1.19890        -0.01130
C           1.05310        -1.34190        -0.77740
C           1.92480        -0.26220        -1.33860
S           3.42760        -0.13430        -0.33160
C           4.26700         1.16580        -1.26510
N          -1.85450         0.34700        -0.21450
C          -3.02370        -0.36780        -0.08470
C          -4.10450         0.06630        -1.03950
O          -3.19770        -1.28810         0.70580
H           1.09340         0.95000         2.54110
H           0.30380         0.12110         3.89220
H           1.07710        -0.82410         2.61280
H          -1.41110         0.94790         2.35060
H          -1.40580        -0.80970         2.37480
H           0.02090         0.92430         0.29720
H          -0.56340        -2.10760         0.29590
H           1.34560        -2.35680        -1.04630
H           1.41590         0.70510        -1.36410
H           2.19370        -0.52100        -2.36810
H           5.22710         1.38710        -0.79140
H           4.45330         0.83870        -2.29130
H           3.66520         2.07840        -1.27270
H          -1.76180         0.94990        -1.01940
H          -3.93640         1.08540        -1.39900
H          -5.06890         0.04330        -0.52420
H          -4.12580        -0.61770        -1.89180

