%mem=24GB
%nprocshared=12
# B3LYP/6-31+G(d,p) NormalPNO TightSCF printbasis

 Mol2 18

0 1
C          -2.50920        -0.55130        -2.59130
C          -1.28420         0.33450        -2.40810
C          -0.37940        -0.10050        -1.24060
C           0.88680         0.72720        -1.21000
C           1.93840         0.56410        -0.38470
C           2.09410        -0.48340         0.67760
S           1.83590         0.26020         2.31880
C           3.44310         1.06270         2.53750
N          -1.03580         0.08560         0.03850
C          -1.67300        -0.94230         0.69110
C          -2.21160        -0.57290         2.04720
O          -1.79630        -2.07280         0.23050
H          -3.06080        -0.24700        -3.48670
H          -3.19200        -0.47150        -1.74050
H          -2.22180        -1.60050        -2.71200
H          -1.61830         1.37040        -2.26560
H          -0.70810         0.31180        -3.34220
H          -0.11310        -1.15600        -1.37560
H           0.94930         1.53560        -1.93760
H           2.78110         1.24300        -0.50300
H           3.08850        -0.93770         0.62010
H           1.37320        -1.29650         0.55600
H           4.24990         0.32850         2.46820
H           3.47960         1.52240         3.52890
H           3.59080         1.84680         1.79100
H          -0.86040         0.94660         0.54060
H          -1.63300        -1.09330         2.81490
H          -2.15250         0.50370         2.22910
H          -3.26120        -0.87360         2.10780

