%mem=24GB
%nprocshared=12
# B3LYP/6-31+G(d,p) NormalPNO TightSCF printbasis

 Mol2 250

0 1
C           0.35130        -1.60290         2.40900
C          -0.66230        -0.99560         1.44830
C          -0.47380         0.51830         1.24880
C           0.87060         0.95370         0.71820
C           1.52780         0.59570        -0.40090
C           1.08280        -0.32460        -1.49480
S           2.00270        -1.88820        -1.43320
C           3.59140        -1.33600        -2.10060
N          -1.48320         1.08380         0.37390
C          -2.76350         1.33200         0.80890
C          -3.68840         1.84580        -0.26180
O          -3.14320         1.14840         1.96050
H           0.31490        -1.10420         3.38280
H           0.13150        -2.66390         2.56480
H           1.37120        -1.52810         2.02060
H          -1.66630        -1.18390         1.84940
H          -0.62460        -1.53070         0.49430
H          -0.60280         0.99270         2.23140
H           1.38080         1.65810         1.37720
H           2.50370         1.05460        -0.55870
H           0.01810        -0.55770        -1.42220
H           1.22730         0.15360        -2.46920
H           4.25040        -2.20150        -2.21190
H           3.45590        -0.87780        -3.08370
H           4.07240        -0.62590        -1.42370
H          -1.27690         1.15940        -0.61120
H          -4.24220         2.70510         0.12670
H          -3.13940         2.16740        -1.15110
H          -4.38630         1.05250        -0.54190

