%mem=24GB
%nprocshared=12
# B3LYP/6-31+G(d,p) NormalPNO TightSCF printbasis

 Mol2 24

0 1
C           0.55320        -2.77300        -2.42200
C           0.91740        -2.20840        -1.05530
C           1.03850        -0.67550        -1.03120
C          -0.28730         0.00800        -1.28720
C          -1.02640         0.75150        -0.44250
C          -2.32140         1.40440        -0.82160
S          -3.69310         0.65010         0.10130
C          -3.50730         1.52260         1.67550
N           1.57280        -0.25710         0.25310
C           2.48910         0.76150         0.37170
C           2.82920         1.11260         1.79560
O           2.99080         1.35370        -0.57740
H           1.26390        -2.44170        -3.18560
H           0.57430        -3.86720        -2.39270
H          -0.45230        -2.47030        -2.72850
H           0.17750        -2.54430        -0.31710
H           1.87620        -2.64700        -0.74920
H           1.73690        -0.36030        -1.81600
H          -0.65900        -0.12210        -2.30350
H          -0.67970         0.93320         0.56980
H          -2.27930         2.48120        -0.62980
H          -2.52950         1.27490        -1.88900
H          -2.55190         1.27750         2.14560
H          -4.31040         1.21450         2.35050
H          -3.57930         2.60290         1.52490
H           1.09990        -0.59170         1.08080
H           2.32550         2.04480         2.06390
H           3.91190         1.23880         1.88430
H           2.52000         0.32650         2.49010

