%mem=24GB
%nprocshared=12
# B3LYP/6-31+G(d,p) NormalPNO TightSCF printbasis

 Mol2 308

0 1
C          -1.78100        -0.33100         2.51500
C          -0.94890        -0.98980         1.42230
C          -0.48990         0.00830         0.34630
C           0.39200        -0.64310        -0.68670
C           1.62900        -0.26960        -1.06050
C           2.39560         0.92620        -0.58820
S           3.37610         0.52830         0.88590
C           4.61850        -0.55510         0.13860
N          -1.56690         0.68860        -0.35460
C          -2.59230         0.05850        -1.02170
C          -3.53420         1.00770        -1.71440
O          -2.74340        -1.15630        -1.08550
H          -1.22680         0.48290         2.99320
H          -2.71550         0.07500         2.11600
H          -2.03690        -1.06440         3.28630
H          -1.52400        -1.81430         0.98670
H          -0.06580        -1.44480         1.88920
H           0.06070         0.80470         0.85940
H          -0.02900        -1.53580        -1.15160
H           2.12710        -0.87550        -1.81600
H           1.72110         1.75210        -0.34130
H           3.05110         1.29410        -1.38450
H           5.13160        -0.04240        -0.67910
H           5.35950        -0.82250         0.89680
H           4.16030        -1.47590        -0.23070
H          -1.45050         1.68210        -0.49510
H          -3.48840         2.00890        -1.27670
H          -3.27100         1.06480        -2.77370
H          -4.55810         0.63800        -1.60830

