%mem=24GB
%nprocshared=12
# B3LYP/6-31+G(d,p) NormalPNO TightSCF printbasis

 Mol2 288

0 1
C          -2.40170        -2.24970         0.27350
C          -2.05870        -1.15280         1.27610
C          -1.05530        -0.09820         0.77550
C           0.26890        -0.70800         0.37740
C           0.86330        -0.69090        -0.83010
C           2.18370        -1.33430        -1.12600
S           3.38380        -0.09340        -1.68800
C           3.66820         0.77610        -0.12690
N          -1.61580         0.68270        -0.31280
C          -1.39000         1.99530        -0.60750
C          -0.63730         2.83410         0.38760
O          -1.81640         2.46140        -1.66220
H          -1.51750        -2.82910        -0.00850
H          -3.12380        -2.94380         0.71610
H          -2.85200        -1.83930        -0.63490
H          -1.65980        -1.62720         2.18190
H          -2.98890        -0.65020         1.57030
H          -0.85680         0.58160         1.61150
H           0.78590        -1.21020         1.19510
H           0.37960        -0.20430        -1.67530
H           2.59050        -1.87240        -0.26350
H           2.04870        -2.06510        -1.92990
H           4.46020         1.51610        -0.27120
H           3.98810         0.07620         0.64940
H           2.76620         1.30110         0.19620
H          -2.05500         0.18630        -1.07770
H          -0.53280         3.85110        -0.00210
H           0.36290         2.42560         0.55040
H          -1.18810         2.88110         1.33060

