%mem=24GB
%nprocshared=12
# B3LYP/6-31+G(d,p) NormalPNO TightSCF printbasis

 Mol2 384

0 1
C          -0.75780         2.74620        -0.18640
C          -1.36870         1.50480         0.45040
C          -1.21830         0.24310        -0.42030
C           0.18210        -0.27360        -0.64630
C           1.26500        -0.07370         0.12590
C           2.62890        -0.61200        -0.18470
S           3.77140         0.78160        -0.40480
C           5.27160        -0.15790        -0.77110
N          -1.94360        -0.87020         0.16540
C          -3.30210        -1.01180         0.00670
C          -3.89420        -2.15870         0.78090
O          -3.99070        -0.27440        -0.69030
H          -0.94530         3.62130         0.44420
H           0.32450         2.65120        -0.30950
H          -1.20020         2.93850        -1.16910
H          -0.93620         1.34770         1.44600
H          -2.43500         1.70300         0.61910
H          -1.65880         0.45850        -1.40250
H           0.29350        -0.86040        -1.55800
H           1.18240         0.50410         1.04360
H           2.62150        -1.22030        -1.09490
H           2.96930        -1.23550         0.64790
H           5.13520        -0.75640        -1.67560
H           5.52670        -0.81060         0.06780
H           6.10010         0.53610        -0.93560
H          -1.48110        -1.39350         0.89620
H          -4.43520        -1.76520         1.64540
H          -3.12290        -2.85220         1.12760
H          -4.58220        -2.70980         0.13380

