%mem=24GB
%nprocshared=12
# B3LYP/6-31+G(d,p) NormalPNO TightSCF printbasis

 Mol2 177

0 1
C          -1.81410         2.47540        -0.79800
C          -0.46830         1.79470        -0.58450
C          -0.51730         0.26840        -0.78250
C           0.88450        -0.30340        -0.72560
C           1.34370        -1.32050         0.02720
C           2.75550        -1.82080        -0.00620
S           3.52930        -1.60770         1.62390
C           3.77160         0.18600         1.60250
N          -1.34100        -0.36090         0.23140
C          -2.64010        -0.74020        -0.00870
C          -3.34280        -1.30980         1.19420
O          -3.20280        -0.61740        -1.09130
H          -2.22060         2.24110        -1.78680
H          -2.54220         2.17080        -0.04050
H          -1.69960         3.56200        -0.72820
H           0.24810         2.23420        -1.29050
H          -0.10720         2.03560         0.42380
H          -0.92740         0.04800        -1.77540
H           1.58420         0.17930        -1.40830
H           0.67370        -1.86230         0.69040
H           3.36130        -1.32220        -0.76990
H           2.74800        -2.88950        -0.24380
H           2.81170         0.70820         1.60190
H           4.35610         0.48360         0.72800
H           4.32050         0.48140         2.50080
H          -0.99940        -0.35350         1.18250
H          -2.63230        -1.62080         1.96520
H          -3.92010        -2.18720         0.88950
H          -4.01310        -0.55260         1.60900

