%mem=24GB
%nprocshared=12
# B3LYP/6-31+G(d,p) NormalPNO TightSCF printbasis

 Mol2 468

0 1
C          -1.38100         2.89410         0.67160
C          -1.67000         1.78480        -0.33410
C          -0.90130         0.47070        -0.10050
C           0.59130         0.62350        -0.23930
C           1.35420        -0.15090        -1.03110
C           2.83710        -0.00210        -1.17830
S           3.69830        -1.32720        -0.28380
C           3.39420        -2.70390        -1.41860
N          -1.14320        -0.09330         1.21170
C          -2.31300        -0.74670         1.51660
C          -2.39210        -1.24050         2.93630
O          -3.23120        -0.91190         0.72020
H          -1.59910         2.57410         1.69490
H          -0.33870         3.22190         0.62420
H          -2.00890         3.76450         0.45420
H          -1.44980         2.15860        -1.34200
H          -2.74750         1.58020        -0.30880
H          -1.26680        -0.25490        -0.83920
H           1.06950         1.40020         0.35300
H           0.88220        -0.93180        -1.62390
H           3.12120        -0.00820        -2.23540
H           3.17500         0.95310        -0.76210
H           3.76060        -2.46310        -2.41990
H           3.92990        -3.58650        -1.05860
H           2.32930        -2.94480        -1.46160
H          -0.44690         0.04060         1.93230
H          -3.10760        -0.62570         3.48860
H          -1.42160        -1.19220         3.43760
H          -2.72420        -2.28240         2.93390

