%mem=24GB
%nprocshared=12
# B3LYP/6-31+G(d,p) NormalPNO TightSCF printbasis

 Mol2 208

0 1
C          -2.96010        -1.65610        -0.83160
C          -1.45790        -1.49160        -0.63630
C          -1.09590        -0.43410         0.42280
C           0.37000        -0.35360         0.78020
C           1.40960        -0.89510         0.12080
C           2.83890        -0.75650         0.54990
S           3.73490         0.19310        -0.71270
C           5.37090         0.18030         0.05650
N          -1.44210         0.90110        -0.02640
C          -2.59960         1.53480         0.35400
C          -2.79150         2.89120        -0.26940
O          -3.42530         1.05190         1.12170
H          -3.41150        -0.75040        -1.24710
H          -3.15950        -2.47530        -1.53000
H          -3.45680        -1.89070         0.11510
H          -1.00970        -1.23620        -1.60490
H          -1.04940        -2.46440        -0.33540
H          -1.64640        -0.66380         1.34360
H           0.57180         0.22460         1.68220
H           1.24410        -1.47740        -0.78260
H           3.28520        -1.75100         0.64800
H           2.92020        -0.24250         1.51310
H           5.72890        -0.84590         0.17330
H           6.07340         0.72270        -0.58190
H           5.33720         0.67230         1.03200
H          -0.84560         1.32610        -0.72420
H          -3.57210         2.82660        -1.03200
H          -3.09030         3.60190         0.50610
H          -1.87130         3.25820        -0.73230

