%mem=24GB
%nprocshared=12
# B3LYP/6-31+G(d,p) NormalPNO TightSCF printbasis

 Mol2 428

0 1
C          -2.38080        -1.72200        -0.58100
C          -1.80150        -1.52480         0.81560
C          -0.65240        -0.50360         0.91050
C           0.56110        -0.90180         0.11020
C           1.78420        -1.07380         0.64210
C           2.99620        -1.47630        -0.13950
S           4.29260        -0.21260         0.00170
C           3.52960         1.10820        -0.97230
N          -1.04230         0.81510         0.45230
C          -1.80620         1.65140         1.23280
C          -2.17770         2.94640         0.56210
O          -2.17670         1.37850         2.36940
H          -2.75760        -0.78190        -0.99510
H          -3.21820        -2.42640        -0.53920
H          -1.63950        -2.13420        -1.27150
H          -2.61750        -1.21040         1.47820
H          -1.45410        -2.49560         1.19110
H          -0.38220        -0.41490         1.97100
H           0.42450        -1.05540        -0.95740
H           1.92880        -0.92880         1.71210
H           3.38840        -2.41220         0.27140
H           2.77260        -1.65360        -1.19660
H           3.27310         0.74840        -1.97210
H           2.63510         1.49180        -0.47540
H           4.24210         1.93130        -1.07460
H          -0.90690         1.04740        -0.52130
H          -1.54050         3.14880        -0.30330
H          -2.05480         3.76680         1.27470
H          -3.21940         2.89420         0.23520

