%mem=24GB
%nprocshared=12
# B3LYP/6-31+G(d,p) NormalPNO TightSCF printbasis

 Mol2 477

0 1
C          -1.14120         2.49640        -1.48850
C          -1.17050         2.09880        -0.01840
C          -0.39860         0.80080         0.26800
C          -0.35890         0.52750         1.75000
C           0.72530         0.29800         2.51260
C           2.16350         0.28000         2.09100
S           2.85180        -1.38850         2.29040
C           2.15430        -2.16480         0.81090
N          -1.04710        -0.35070        -0.32970
C          -0.58930        -0.93410        -1.48650
C          -1.42080        -2.09450        -1.96380
O           0.41910        -0.57230        -2.08340
H          -0.11220         2.59590        -1.84830
H          -1.64260         3.45970        -1.62690
H          -1.65740         1.76050        -2.11230
H          -2.21700         2.00110         0.29820
H          -0.73540         2.91890         0.56700
H           0.61010         0.89790        -0.14280
H          -1.32580         0.51440         2.25250
H           0.56160         0.11780         3.57550
H           2.72420         0.95450         2.74700
H           2.33040         0.62860         1.06960
H           2.42660        -1.60040        -0.08450
H           1.06740        -2.23820         0.89050
H           2.55820        -3.17650         0.71630
H          -1.90690        -0.68270         0.08470
H          -2.36790        -2.16660        -1.42230
H          -0.85830        -3.02020        -1.81670
H          -1.64280        -1.96120        -3.02610

