%mem=24GB
%nprocshared=12
# B3LYP/6-31+G(d,p) NormalPNO TightSCF printbasis

 Mol2 405

0 1
C          -1.33880         2.44870        -0.93340
C          -1.88620         1.27880        -0.12620
C          -0.79290         0.28920         0.31200
C           0.18110         0.90210         1.28540
C           1.52230         0.80360         1.25550
C           2.35180         0.01610         0.28670
S           3.15230         1.17020        -0.86320
C           3.96640        -0.04100        -1.93000
N          -1.37030        -0.85390         0.99350
C          -1.89720        -1.91700         0.29890
C          -2.53640        -2.96460         1.17030
O          -1.86870        -2.01810        -0.92300
H          -0.65870         3.06500        -0.33760
H          -2.16000         3.08900        -1.27080
H          -0.79970         2.09550        -1.81820
H          -2.42730         1.66330         0.74810
H          -2.63060         0.75440        -0.73850
H          -0.28420        -0.07070        -0.58870
H          -0.25660         1.51560         2.07180
H           2.08690         1.33310         2.02230
H           3.11820        -0.53710         0.83930
H           1.75800        -0.71080        -0.27300
H           3.22510        -0.68420        -2.41130
H           4.66350        -0.65160        -1.35030
H           4.52780         0.48360        -2.70770
H          -1.56140        -0.77280         1.98250
H          -2.25270        -2.84520         2.21970
H          -2.20850        -3.95380         0.83900
H          -3.62320        -2.88740         1.08350

