%mem=24GB
%nprocshared=12
# B3LYP/6-31+G(d,p) NormalPNO TightSCF printbasis

 Mol2 502

0 1
C          -1.75820        -1.76460        -1.29330
C          -1.96850        -1.69650         0.21500
C          -1.20270        -0.56470         0.92640
C           0.29570        -0.76630         0.87990
C           1.15310        -0.30550        -0.05010
C           2.63380        -0.52920        -0.01850
S           3.45660         1.08350         0.12660
C           5.17050         0.50800         0.13290
N          -1.52880         0.76320         0.43690
C          -2.76600         1.32640         0.65460
C          -2.87280         2.75520         0.19240
O          -3.70400         0.74570         1.18950
H          -2.38330        -2.55610        -1.71990
H          -0.71970        -1.99600        -1.54590
H          -2.03430        -0.82380        -1.77920
H          -1.67910        -2.66070         0.65240
H          -3.04320        -1.58880         0.40180
H          -1.49540        -0.57590         1.98490
H           0.69210        -1.34300         1.71500
H           0.77540         0.24590        -0.90910
H           2.92590        -1.16150         0.82600
H           2.94630        -1.01920        -0.94590
H           5.83930         1.36890         0.21470
H           5.34780        -0.15180         0.98620
H           5.39790        -0.02150        -0.79600
H          -0.76020         1.40380         0.28850
H          -2.79070         3.41880         1.05700
H          -2.08740         3.00320        -0.52720
H          -3.84020         2.90240        -0.29580

