%mem=24GB
%nprocshared=12
# B3LYP/6-31+G(d,p) NormalPNO TightSCF printbasis

 Mol2 438

0 1
C          -2.71170        -2.22560        -0.88530
C          -1.20420        -2.16560        -0.67580
C          -0.75500        -0.98890         0.21110
C           0.72640        -1.10110         0.50780
C           1.66170        -0.13330         0.46520
C           3.10980        -0.35340         0.78420
S           3.52530         0.34700         2.40630
C           3.50740         2.10840         1.99320
N          -1.02060         0.28010        -0.44060
C          -2.12590         1.04130        -0.14320
C          -2.25580         2.28280        -0.98410
O          -2.95490         0.74750         0.71080
H          -3.24080        -2.25570         0.07240
H          -3.07200        -1.36480        -1.45600
H          -2.97640        -3.12780        -1.44620
H          -0.71390        -2.11130        -1.65650
H          -0.89020        -3.11210        -0.21710
H          -1.29360        -1.03350         1.16530
H           1.04070        -2.09310         0.83420
H           1.38430         0.87850         0.18380
H           3.34320        -1.42310         0.81540
H           3.74310         0.08770         0.00780
H           4.19070         2.31510         1.16540
H           3.83790         2.68120         2.86390
H           2.49850         2.43690         1.73190
H          -0.47630         0.50400        -1.26150
H          -1.30800         2.54530        -1.46250
H          -2.55740         3.11790        -0.34570
H          -3.01230         2.11540        -1.75510

