%mem=24GB
%nprocshared=12
# B3LYP/6-31+G(d,p) NormalPNO TightSCF printbasis

 Mol2 532

0 1
C          -2.54330        -1.27010        -1.01320
C          -1.08390        -1.03150        -0.64590
C          -0.89500         0.07710         0.40630
C           0.51350         0.23330         0.93140
C           1.64420        -0.30410         0.43900
C           3.00060        -0.09500         1.04260
S           3.60650        -1.63610         1.78790
C           4.10560        -2.52130         0.29090
N          -1.24050         1.37980        -0.13220
C          -2.46520         1.96600         0.07930
C          -2.64010         3.29000        -0.61490
O          -3.35750         1.46680         0.75630
H          -3.14170        -1.49250        -0.12420
H          -2.97670        -0.40120        -1.51690
H          -2.62310        -2.12200        -1.69610
H          -0.67640        -1.97430        -0.25990
H          -0.53190        -0.79000        -1.56300
H          -1.54210        -0.14600         1.26370
H           0.57990         0.84110         1.83460
H           1.61000        -0.91430        -0.45900
H           3.70550         0.26320         0.28560
H           2.96500         0.66330         1.83210
H           4.83180        -1.93420        -0.27720
H           3.23920        -2.74570        -0.33590
H           4.57480        -3.46680         0.57640
H          -0.59110         1.80620        -0.77870
H          -3.29600         3.15640        -1.47910
H          -1.68380         3.69890        -0.95260
H          -3.08850         4.00300         0.08260

