%mem=24GB
%nprocshared=12
# B3LYP/6-31+G(d,p) NormalPNO TightSCF printbasis

 Mol2 269

0 1
C          -0.90770        -2.78070        -1.61840
C          -0.39480        -2.41090        -0.23100
C          -0.51030        -0.92550         0.15710
C           0.22590        -0.00340        -0.78230
C           1.22310         0.84440        -0.47030
C           1.80920         1.10300         0.88590
S           3.36260         0.17640         1.07630
C           4.45330         1.21350         0.07280
N          -1.89260        -0.48280         0.18100
C          -2.34800         0.42380         1.11250
C          -3.77200         0.85940         0.89040
O          -1.67570         0.86160         2.03990
H          -1.96310        -2.52110        -1.74130
H          -0.33250        -2.28760        -2.40710
H          -0.81330        -3.86100        -1.77150
H           0.65620        -2.71840        -0.15790
H          -0.94730        -3.00930         0.50490
H          -0.11340        -0.84080         1.17340
H          -0.08410        -0.03360        -1.82490
H           1.64220         1.44350        -1.27680
H           1.13460         0.80260         1.69080
H           1.99040         2.17440         1.02120
H           5.47280         0.82350         0.13580
H           4.14640         1.20010        -0.97590
H           4.45420         2.24120         0.44520
H          -2.44180        -0.61430        -0.65630
H          -4.30790         0.16480         0.23740
H          -4.29110         0.89080         1.85240
H          -3.77550         1.85370         0.43650

