%mem=24GB
%nprocshared=12
# B3LYP/6-31+G(d,p) NormalPNO TightSCF printbasis

 Mol2 240

0 1
C          -1.53240        -0.74900         2.36180
C          -1.26940         0.63680         1.78270
C          -0.88890         0.66230         0.29050
C           0.39590        -0.06700        -0.00570
C           1.47860         0.51660        -0.54940
C           2.76300        -0.19250        -0.84870
S           4.07160         0.49300         0.20560
C           5.45150        -0.50720        -0.39650
N          -1.91000         0.07100        -0.55210
C          -3.06210         0.75000        -0.87300
C          -4.04220        -0.05500        -1.68360
O          -3.29800         1.90250        -0.52720
H          -0.63600        -1.37510         2.33440
H          -1.84000        -0.66130         3.40910
H          -2.33320        -1.26350         1.82200
H          -2.17120         1.24300         1.93420
H          -0.47280         1.11490         2.36680
H          -0.79210         1.71590        -0.00310
H           0.44110        -1.12190         0.25340
H           1.44210         1.57360        -0.80990
H           2.67760        -1.26820        -0.66330
H           3.02170        -0.04200        -1.90160
H           6.36130        -0.22670         0.14070
H           5.25800        -1.56860        -0.22090
H           5.61100        -0.33340        -1.46380
H          -1.85950        -0.91940        -0.74430
H          -4.44110         0.57050        -2.48700
H          -4.85680        -0.38600        -1.03420
H          -3.56760        -0.92980        -2.13680

