%mem=24GB
%nprocshared=12
# B3LYP/6-31+G(d,p) NormalPNO TightSCF printbasis

 Mol2 122

0 1
C          -1.46020        -2.80290        -0.60230
C          -0.43900        -1.67260        -0.54920
C          -0.46870        -0.91390         0.79130
C           0.60320         0.12590         1.00770
C           1.37050         0.70100         0.06480
C           2.40670         1.74490         0.34290
S           4.07300         1.06180         0.10280
C           4.12840         1.04050        -1.70610
N          -1.74630        -0.28680         1.09180
C          -2.37210         0.63180         0.27860
C          -3.64310         1.18700         0.86600
O          -1.95880         0.99940        -0.81530
H          -2.48350        -2.42080        -0.53630
H          -1.30280        -3.51290         0.21580
H          -1.36710        -3.34910        -1.54640
H          -0.61660        -1.00400        -1.39810
H           0.55850        -2.10600        -0.69590
H          -0.32520        -1.66450         1.58060
H           0.75820         0.41460         2.04610
H           1.21190         0.45090        -0.98120
H           2.25690         2.61650        -0.30200
H           2.33900         2.09680         1.37790
H           5.12420         0.72320        -2.02750
H           3.39860         0.33460        -2.10980
H           3.93920         2.03950        -2.10720
H          -2.10510        -0.41540         2.02730
H          -3.43620         2.16460         1.30890
H          -4.05490         0.52380         1.63200
H          -4.38870         1.29220         0.07270

