%mem=24GB
%nprocshared=12
# B3LYP/6-31+G(d,p) NormalPNO TightSCF printbasis

 Mol2 326

0 1
C          -2.46120         0.52920        -2.38580
C          -1.16060         0.87570        -1.67360
C          -0.83860        -0.06640        -0.50230
C           0.52270         0.24990         0.06370
C           1.50300        -0.65930         0.20640
C           2.86130        -0.36140         0.76080
S           4.09500        -0.59480        -0.54990
C           5.57910        -0.21560         0.40960
N          -1.77200         0.09120         0.59620
C          -2.85090        -0.74350         0.76760
C          -3.72680        -0.37960         1.93640
O          -3.10870        -1.69400         0.03710
H          -3.32600         0.67180        -1.73130
H          -2.59550         1.17760        -3.25760
H          -2.45470        -0.50840        -2.73420
H          -1.21800         1.91480        -1.32450
H          -0.34730         0.83220        -2.40940
H          -0.87070        -1.10400        -0.85680
H           0.71060         1.28380         0.34490
H           1.31710        -1.69370        -0.08020
H           2.92310         0.66580         1.13460
H           3.07070        -1.04470         1.58990
H           5.53420         0.80710         0.79290
H           6.45770        -0.30670        -0.23460
H           5.68450        -0.91670         1.24160
H          -1.68640         0.90970         1.18170
H          -3.99450        -1.28990         2.48010
H          -4.63190         0.10910         1.56650
H          -3.21500         0.29320         2.63020

