%mem=24GB
%nprocshared=12
# B3LYP/6-31+G(d,p) NormalPNO TightSCF printbasis

 Mol2 409

0 1
C          -1.47990        -2.47490        -1.51050
C          -1.79420        -1.06390        -1.03090
C          -0.83670        -0.57460         0.06870
C           0.57830        -0.42710        -0.42940
C           1.64830        -0.96130         0.18500
C           3.05560        -0.83820        -0.31040
S           4.09780        -0.02120         0.93210
C           3.42750         1.65650         0.82740
N          -1.22990         0.73260         0.55920
C          -2.24770         0.88140         1.47230
C          -2.56090         2.31310         1.81480
O          -2.86880        -0.05510         1.96310
H          -0.49710        -2.52770        -1.98870
H          -2.22530        -2.79650        -2.24490
H          -1.49800        -3.18460        -0.67730
H          -2.82460        -1.04970        -0.65450
H          -1.77380        -0.37790        -1.88760
H          -0.87760        -1.27710         0.91100
H           0.71680         0.13710        -1.34930
H           1.50800        -1.53780         1.09870
H           3.11970        -0.29210        -1.25720
H           3.45890        -1.84090        -0.48520
H           4.02630         2.31850         1.45900
H           2.39520         1.68660         1.18470
H           3.47520         2.02520        -0.20050
H          -0.86660         1.55280         0.09480
H          -3.47980         2.61070         1.30320
H          -2.69520         2.40110         2.89660
H          -1.75140         2.98510         1.51640

