%mem=24GB
%nprocshared=12
# B3LYP/6-31+G(d,p) NormalPNO TightSCF printbasis

 Mol2 534

0 1
C          -0.93210        -1.97690        -2.11820
C          -0.86860        -1.75640        -0.61080
C          -0.55250        -0.31490        -0.16670
C           0.80800         0.15970        -0.61230
C           1.79290         0.64460         0.16590
C           1.75340         0.87480         1.64660
S           2.52850        -0.51580         2.52060
C           4.26700        -0.16640         2.16210
N          -1.51130         0.64530        -0.67850
C          -2.75790         0.79170        -0.11660
C          -3.64500         1.76910        -0.83980
O          -3.13930         0.18080         0.87570
H          -1.67700        -1.32730        -2.58760
H          -1.21460        -3.01360        -2.32960
H           0.03590        -1.79790        -2.59470
H          -0.11890        -2.43700        -0.18780
H          -1.83460        -2.05730        -0.18630
H          -0.62710        -0.30170         0.92590
H           1.01800         0.08220        -1.67740
H           2.72150         0.93480        -0.32310
H           0.72870         0.98260         2.01270
H           2.26710         1.80900         1.89690
H           4.46980        -0.25890         1.09240
H           4.53480         0.83650         2.50460
H           4.89220        -0.89000         2.69240
H          -1.33100         1.06860        -1.57800
H          -3.07030         2.41830        -1.50630
H          -4.15510         2.40000        -0.10650
H          -4.38230         1.21600        -1.42740

