%mem=24GB
%nprocshared=12
# B3LYP/6-31+G(d,p) NormalPNO TightSCF printbasis

 Mol2 215

0 1
C          -2.26500        -2.14310         0.54430
C          -1.25960        -1.75330        -0.53110
C          -0.60460        -0.38460        -0.27990
C           0.47020        -0.11980        -1.30530
C           1.71740         0.32700        -1.07070
C           2.30420         0.71860         0.25250
S           3.35330        -0.61980         0.89210
C           4.80110        -0.40170        -0.17050
N          -1.55360         0.70320        -0.41900
C          -2.15620         1.29620         0.66470
C          -3.14940         2.36810         0.30340
O          -1.93370         0.98700         1.83010
H          -1.80370        -2.13140         1.53680
H          -3.12470        -1.46670         0.55210
H          -2.64050        -3.15440         0.35790
H          -1.76620        -1.76330        -1.50490
H          -0.48210        -2.52710        -0.56850
H          -0.19190        -0.38100         0.73380
H           0.20580        -0.34250        -2.33820
H           2.37550         0.45390        -1.92850
H           1.52920         0.93020         0.99430
H           2.88930         1.63840         0.14860
H           5.19610         0.61310        -0.07620
H           5.57920        -1.10450         0.13940
H           4.55180        -0.60650        -1.21450
H          -1.85500         0.95610        -1.34940
H          -2.99380         3.23350         0.95360
H          -4.16140         1.97900         0.44230
H          -3.03180         2.69540        -0.73330

