%mem=24GB
%nprocshared=12
# B3LYP/6-31+G(d,p) NormalPNO TightSCF printbasis

 Mol2 67

0 1
C          -1.43420         2.10250        -0.79930
C          -0.80300         0.96740        -1.60020
C          -0.47770        -0.30490        -0.79110
C           0.66530        -0.24450         0.19490
C           1.51830         0.77030         0.41970
C           2.64010         0.71740         1.41240
S           4.23360         0.96970         0.57890
C           4.36280        -0.60930        -0.29760
N          -1.63010        -0.76780        -0.03880
C          -2.65370        -1.45990        -0.64390
C          -3.82370        -1.73860         0.26080
O          -2.63880        -1.81680        -1.81680
H          -0.81040         2.41350         0.04220
H          -2.41500         1.81400        -0.40830
H          -1.58240         2.97410        -1.44530
H          -1.50200         0.70480        -2.40480
H           0.10380         1.33330        -2.09680
H          -0.21980        -1.08830        -1.51620
H           0.81670        -1.16990         0.75190
H           1.42460         1.70350        -0.13020
H           2.50630         1.52430         2.14020
H           2.66340        -0.22390         1.97110
H           3.58870        -0.69320        -1.06430
H           4.28320        -1.44450         0.40320
H           5.33780        -0.66380        -0.78950
H          -1.80650        -0.33220         0.85650
H          -3.55890        -1.60660         1.31360
H          -4.64060        -1.05740         0.00920
H          -4.14790        -2.77320         0.11820

