%mem=24GB
%nprocshared=12
# B3LYP/6-31+G(d,p) NormalPNO TightSCF printbasis

 Mol2 364

0 1
C           0.15930        -1.69860         1.92260
C          -0.88520        -0.83660         1.22530
C          -0.39980         0.60000         0.95340
C           0.73130         0.76820        -0.03230
C           1.11370        -0.08420        -1.00010
C           2.26180         0.16560        -1.93060
S           3.65070        -0.93440        -1.53250
C           3.01750        -2.48490        -2.21720
N          -1.48270         1.41430         0.43110
C          -2.43960         1.96000         1.25410
C          -3.53700         2.68540         0.52300
O          -2.42540         1.86520         2.47660
H           0.47150        -1.24440         2.86850
H          -0.25820        -2.68590         2.14500
H           1.04780        -1.84590         1.30260
H          -1.77540        -0.80300         1.86650
H          -1.20830        -1.32310         0.29700
H          -0.07900         1.03330         1.90970
H           1.29400         1.69330         0.09650
H           0.56560        -1.00920        -1.15510
H           1.95050         0.02290        -2.97030
H           2.61950         1.19700        -1.84200
H           2.13870        -2.82460        -1.66380
H           3.79140        -3.25290        -2.13360
H           2.76610        -2.36300        -3.27390
H          -1.65580         1.38090        -0.56420
H          -4.44060         2.07050         0.53290
H          -3.73230         3.63740         1.02440
H          -3.25990         2.89670        -0.51360

