%mem=24GB
%nprocshared=12
# B3LYP/6-31+G(d,p) NormalPNO TightSCF printbasis

 Mol2 489

0 1
C           0.18630         2.31150        -1.79580
C          -1.04320         1.77060        -1.07760
C          -0.91270         0.28660        -0.69560
C           0.17380         0.05190         0.32180
C           1.16860        -0.83850         0.16300
C           2.26360        -1.07160         1.15710
S           3.84200        -0.56130         0.42060
C           4.92980        -0.98260         1.80120
N          -2.13880        -0.20730        -0.09710
C          -3.21880        -0.57340        -0.86590
C          -4.42730        -0.98640        -0.06940
O          -3.22380        -0.55770        -2.09210
H           0.01680         3.34930        -2.10030
H           0.40340         1.72630        -2.69510
H           1.06950         2.29420        -1.15010
H          -1.91260         1.90630        -1.73280
H          -1.23700         2.37890        -0.18470
H          -0.72260        -0.29700        -1.60540
H           0.14980         0.67080         1.21610
H           1.19790        -1.45120        -0.73710
H           2.30180        -2.13590         1.40970
H           2.09480        -0.50280         2.07720
H           5.96150        -0.73780         1.53490
H           4.87210        -2.05220         2.01930
H           4.65570        -0.40980         2.69090
H          -2.26170        -0.10590         0.90040
H          -4.16980        -1.20310         0.97110
H          -4.85400        -1.89160        -0.51030
H          -5.16500        -0.18020        -0.09460

