%mem=24GB
%nprocshared=12
# B3LYP/6-31+G(d,p) NormalPNO TightSCF printbasis

 Mol2 481

0 1
C          -0.21740         2.53290         1.44870
C          -0.85640         1.16350         1.25760
C          -1.04000         0.78460        -0.22410
C           0.21130         0.55480        -1.03710
C           1.44110         0.24720        -0.58740
C           2.62620         0.02810        -1.47860
S           3.11780        -1.72080        -1.44030
C           4.03080        -1.74030         0.12210
N          -1.79760        -0.44770        -0.34540
C          -3.16660        -0.47340        -0.22840
C          -3.76370        -1.85340        -0.29290
O          -3.85790         0.52770        -0.07240
H          -0.16240         2.77490         2.51500
H           0.79880         2.56940         1.04680
H          -0.80950         3.31150         0.95720
H          -0.26990         0.40260         1.78670
H          -1.83580         1.17850         1.75260
H          -1.61380         1.58530        -0.70860
H           0.05870         0.63960        -2.11350
H           1.62100         0.15360         0.47980
H           3.46080         0.66650        -1.17250
H           2.38880         0.28350        -2.51680
H           4.84940        -1.01640         0.09590
H           4.45610        -2.73610         0.27360
H           3.36840        -1.51960         0.96250
H          -1.28390        -1.31880        -0.31540
H          -4.63070        -1.83710        -0.95920
H          -3.04920        -2.58470        -0.68080
H          -4.07450        -2.15580         0.71050

