%mem=24GB
%nprocshared=12
# B3LYP/6-31+G(d,p) NormalPNO TightSCF printbasis

 Mol2 222

0 1
C          -1.44630        -0.95020         2.80070
C          -1.28680        -1.55390         1.41080
C          -0.74120        -0.54070         0.39280
C          -0.49860        -1.20810        -0.93780
C           0.59840        -1.10880        -1.71010
C           1.82110        -0.27800        -1.45840
S           3.22730        -1.39210        -1.16540
C           4.49090        -0.13790        -0.85110
N          -1.69880         0.52040         0.14380
C          -1.30520         1.82190        -0.06880
C          -2.43370         2.74620        -0.44100
O          -0.14790         2.21830         0.02090
H          -1.79910        -1.71180         3.50340
H          -2.17330        -0.13220         2.79950
H          -0.49190        -0.56330         3.17170
H          -2.25860        -1.94540         1.08360
H          -0.60370        -2.40980         1.48130
H           0.18060        -0.11030         0.79530
H          -1.29880        -1.85420        -1.29630
H           0.60990        -1.67060        -2.64380
H           1.71140         0.38860        -0.60170
H           2.02330         0.33700        -2.34120
H           4.22350         0.46220         0.02260
H           4.60830         0.51160        -1.72250
H           5.44650        -0.63090        -0.65410
H          -2.63030         0.24950        -0.13900
H          -2.32600         3.68340         0.11220
H          -3.40710         2.31420        -0.19220
H          -2.39400         2.94490        -1.51510

