%mem=24GB
%nprocshared=12
# B3LYP/6-31+G(d,p) NormalPNO TightSCF printbasis

 Mol2 107

0 1
C          -1.53320         2.04690        -0.48060
C          -1.14080         0.89110        -1.39640
C          -0.81930        -0.43590        -0.67840
C           0.46280        -0.51790         0.11650
C           1.43000         0.40850         0.23630
C           2.68500         0.21430         1.03340
S           4.11180         0.30880        -0.08480
C           5.42240         0.03820         1.13030
N          -1.88070        -0.81810         0.23660
C          -3.05390        -1.37810        -0.21330
C          -4.08470        -1.58660         0.86330
O          -3.26680        -1.67650        -1.38330
H          -2.46740         1.83370         0.04850
H          -1.69250         2.95280        -1.07470
H          -0.76370         2.26700         0.26320
H          -1.97510         0.72390        -2.08980
H          -0.28890         1.19260        -2.01790
H          -0.75540        -1.21200        -1.45270
H           0.61590        -1.47970         0.60750
H           1.33810         1.36900        -0.26460
H           2.75890         1.00430         1.78730
H           2.68960        -0.75440         1.54360
H           5.30530        -0.93900         1.60600
H           5.40460         0.82290         1.89110
H           6.39220         0.06500         0.62640
H          -1.86370        -0.41310         1.16270
H          -4.85370        -0.81470         0.77660
H          -4.53700        -2.57450         0.73940
H          -3.63980        -1.53830         1.86120

