%mem=24GB
%nprocshared=12
# B3LYP/6-31+G(d,p) NormalPNO TightSCF printbasis

 Mol2 56

0 1
C          -0.59470         0.59980        -1.92840
C          -0.89890        -0.81570        -1.44580
C          -0.94860        -0.99020         0.08630
C           0.35210        -0.90010         0.84880
C           1.59740        -0.76380         0.36010
C           2.82810        -0.69560         1.21340
S           3.50120         0.99210         1.20560
C           4.28930         0.99410        -0.42350
N          -1.83910        -0.02390         0.70340
C          -3.20560        -0.17310         0.66550
C          -3.96550         0.98760         1.24880
O          -3.77420        -1.15090         0.19170
H          -1.38430         1.29770        -1.63280
H          -0.53700         0.61390        -3.02180
H           0.35490         0.97600        -1.54020
H          -0.16740        -1.51100        -1.87500
H          -1.87090        -1.10440        -1.86600
H          -1.35830        -1.98970         0.28370
H           0.23680        -0.97460         1.93110
H           1.76240        -0.72440        -0.71240
H           2.59970        -0.95690         2.25220
H           3.58050        -1.40820         0.86120
H           4.82140         1.93950        -0.56010
H           3.54310         0.90450        -1.21670
H           5.01200         0.17770        -0.50050
H          -1.45610         0.88570         0.92590
H          -4.77080         0.60600         1.88260
H          -3.32100         1.62330         1.86240
H          -4.38660         1.58440         0.43560

