%mem=24GB
%nprocshared=12
# B3LYP/6-31+G(d,p) NormalPNO TightSCF printbasis

 Mol2 492

0 1
C          -0.42910        -0.89620         2.00790
C           0.02630         0.51280         1.63950
C          -0.43350         1.00940         0.25310
C           0.20300         0.38510        -0.96660
C           1.20380        -0.51180        -1.01920
C           1.77290        -1.05680        -2.29500
S           3.44910        -0.41490        -2.56830
C           4.36240        -1.43880        -1.38860
N          -1.86700         0.85490         0.07930
C          -2.76210         1.72000         0.66480
C          -4.20360         1.33260         0.47200
O          -2.43610         2.71500         1.30280
H          -0.01640        -1.17600         2.98280
H          -0.10030        -1.64220         1.28040
H          -1.51940        -0.95290         2.08510
H          -0.36320         1.19490         2.40620
H           1.11910         0.57230         1.71150
H          -0.20980         2.08360         0.20610
H          -0.18840         0.76450        -1.91170
H           1.64490        -0.89240        -0.10300
H           1.78460        -2.15120        -2.27180
H           1.16070        -0.76150        -3.15380
H           5.43050        -1.22590        -1.48510
H           4.20240        -2.49970        -1.59780
H           4.06080        -1.21400        -0.36280
H          -2.20400        -0.03960        -0.24970
H          -4.78330         2.22460         0.21880
H          -4.32050         0.60870        -0.33940
H          -4.58370         0.89570         1.39900

