%mem=24GB
%nprocshared=12
# B3LYP/6-31+G(d,p) NormalPNO TightSCF printbasis

 Mol2 243

0 1
C          -1.72080        -2.15530        -1.03940
C          -1.68200        -1.67720         0.40800
C          -1.03520        -0.29650         0.62620
C           0.42020        -0.25380         0.23650
C           1.41190         0.09960         1.07490
C           2.89230         0.19230         0.82390
S           3.39210        -0.05100        -0.90120
C           5.17810         0.13730        -0.69270
N          -1.69820         0.75250        -0.12210
C          -2.89690         1.28690         0.28540
C          -3.46460         2.31320        -0.65790
O          -3.47730         0.96060         1.31550
H          -0.71520        -2.30230        -1.44370
H          -2.25420        -1.44760        -1.68120
H          -2.24210        -3.11650        -1.09880
H          -2.71270        -1.65420         0.78320
H          -1.14990        -2.42470         1.00980
H          -1.14010        -0.05360         1.69180
H           0.65280        -0.52990        -0.78830
H           1.13580         0.36780         2.09520
H           3.23080         1.18500         1.13890
H           3.39700        -0.55290         1.44760
H           5.41390         1.13120        -0.30360
H           5.66820         0.01900        -1.66270
H           5.56520        -0.62620        -0.01290
H          -1.33910         0.98770        -1.03730
H          -3.81730         3.17270        -0.08110
H          -2.71390         2.66580        -1.37060
H          -4.29870         1.87020        -1.20820

