%mem=24GB
%nprocshared=12
# B3LYP/6-31+G(d,p) NormalPNO TightSCF printbasis

 Mol2 478

0 1
C          -2.54100        -2.04290        -0.43950
C          -1.44640        -1.58120         0.51640
C          -0.56610        -0.42390         0.00550
C           0.24750        -0.77810        -1.21270
C           1.55960        -0.54770        -1.40280
C           2.50420         0.16040        -0.47900
S           3.61340        -1.06610         0.26970
C           4.53590         0.04190         1.36030
N          -1.34240         0.74920        -0.34410
C          -1.80980         1.61800         0.61340
C          -2.67910         2.72030         0.07050
O          -1.56190         1.51660         1.81000
H          -3.21630        -1.22300        -0.70220
H          -3.14020        -2.82740         0.03470
H          -2.12580        -2.46050        -1.36080
H          -1.92780        -1.27450         1.45370
H          -0.80850        -2.43960         0.76180
H           0.09310        -0.15070         0.83670
H          -0.27860        -1.29440        -2.01300
H           2.00210        -0.88820        -2.33870
H           1.98310         0.71440         0.30560
H           3.09500         0.87970        -1.05560
H           3.86370         0.51310         2.08210
H           5.28540        -0.53450         1.90910
H           5.04820         0.81130         0.77680
H          -1.70570         0.81670        -1.28460
H          -3.72230         2.50740         0.31750
H          -2.37820         3.66900         0.52370
H          -2.58100         2.81470        -1.01450

