%mem=24GB
%nprocshared=12
# B3LYP/6-31+G(d,p) NormalPNO TightSCF printbasis

 Mol2 207

0 1
C          -1.80090        -2.24440         1.96650
C          -0.73270        -1.15870         1.88610
C          -0.50400        -0.55580         0.48620
C           0.04580        -1.54080        -0.51160
C           0.97780        -1.29120        -1.44980
C           1.61040         0.02960        -1.76730
S           3.26460         0.08090        -1.02410
C           3.76820         1.71560        -1.60940
N          -1.72280        -0.01790        -0.08790
C          -2.28320         1.20520         0.13120
C          -1.48290         2.23570         0.87900
O          -3.40940         1.44460        -0.29970
H          -1.91530        -2.57470         3.00430
H          -1.53580        -3.12220         1.37120
H          -2.77360        -1.87530         1.62770
H          -1.02120        -0.35770         2.57750
H           0.21350        -1.56720         2.26300
H           0.20770         0.26560         0.61800
H          -0.32600        -2.56140        -0.44990
H           1.29560        -2.11910        -2.08280
H           1.69170         0.13410        -2.85420
H           1.01480         0.86890        -1.39750
H           4.77710         1.93240        -1.24860
H           3.09010         2.48270        -1.22650
H           3.77670         1.74320        -2.70210
H          -2.34320        -0.65610        -0.57110
H          -2.05950         3.16340         0.94360
H          -1.27120         1.89310         1.89400
H          -0.55210         2.44760         0.34650

