%mem=24GB
%nprocshared=12
# B3LYP/6-31+G(d,p) NormalPNO TightSCF printbasis

 Mol2 83

0 1
C           0.11420         2.46470         1.17540
C          -1.06680         1.51980         0.98990
C          -0.76550         0.38240        -0.00070
C           0.24920        -0.60730         0.50860
C           1.37220        -1.02030        -0.10590
C           1.84430        -0.64880        -1.47690
S           2.91530         0.81460        -1.42200
C           4.36180         0.10070        -0.60130
N          -1.94870        -0.36440        -0.40050
C          -2.81550        -0.98440         0.47020
C          -3.91680        -1.74840        -0.21660
O          -2.71840        -0.95710         1.69180
H           0.97660         1.94800         1.60760
H          -0.16030         3.28060         1.85160
H           0.41740         2.90560         0.22050
H          -1.35300         1.12550         1.97170
H          -1.92380         2.09990         0.62520
H          -0.40900         0.84780        -0.92660
H           0.04350        -1.00100         1.50500
H           1.99920        -1.73380         0.42670
H           0.99960        -0.43220        -2.13830
H           2.38170        -1.48760        -1.93170
H           4.12390        -0.18700         0.42570
H           5.15850         0.84900        -0.57040
H           4.72650        -0.76830        -1.15500
H          -2.02630        -0.58560        -1.38300
H          -4.84810        -1.61370         0.34060
H          -4.07750        -1.39000        -1.23730
H          -3.65400        -2.80900        -0.24430

