%mem=24GB
%nprocshared=12
# B3LYP/6-31+G(d,p) NormalPNO TightSCF printbasis

 Mol2 439

0 1
C          -3.00620        -1.66880         1.47510
C          -1.76070        -1.74900         0.60300
C          -0.86620        -0.50170         0.69620
C           0.41050        -0.71680        -0.07790
C           1.62910        -0.37790         0.37820
C           2.90540        -0.59500        -0.37380
S           3.59430         1.01770        -0.84120
C           5.10270         0.43880        -1.65160
N          -1.49180         0.66830         0.11390
C          -2.17560         1.58890         0.87130
C          -2.73610         2.74120         0.08140
O          -2.34500         1.49190         2.08230
H          -2.74370        -1.47490         2.51970
H          -3.68390        -0.88130         1.13300
H          -3.55360        -2.61610         1.43450
H          -2.07140        -1.91970        -0.43590
H          -1.18590        -2.63170         0.91170
H          -0.63890        -0.30140         1.75070
H           0.31770        -1.17260        -1.06150
H           1.72120         0.08470         1.36020
H           2.73910        -1.19060        -1.27740
H           3.61500        -1.12880         0.26610
H           4.85630        -0.19820        -2.50510
H           5.72590        -0.11600        -0.94540
H           5.67060         1.30000        -2.01360
H          -1.39890         0.81750        -0.88120
H          -2.49620         3.67640         0.59500
H          -3.82080         2.62850         0.00650
H          -2.31330         2.78680        -0.92600

