%mem=24GB
%nprocshared=12
# B3LYP/6-31+G(d,p) NormalPNO TightSCF printbasis

 Mol2 137

0 1
C          -2.83620        -2.13230         0.57690
C          -1.31500        -2.05230         0.56950
C          -0.77590        -0.63490         0.84070
C           0.73220        -0.66910         0.98000
C           1.63080         0.19120         0.46470
C           3.11100         0.08060         0.67090
S           3.93260        -0.28780        -0.90740
C           3.96820         1.37540        -1.61940
N          -1.13410         0.26670        -0.23810
C          -2.19530         1.13500        -0.15090
C          -2.44620         1.92200        -1.40900
O          -2.89880         1.26320         0.84520
H          -3.15710        -3.17320         0.46650
H          -3.24530        -1.75030         1.51740
H          -3.27180        -1.56310        -0.24950
H          -0.94700        -2.42080        -0.39690
H          -0.93780        -2.74160         1.33580
H          -1.19410        -0.26780         1.78560
H           1.10790        -1.49070         1.59020
H           1.29060         1.04950        -0.10820
H           3.35120        -0.73020         1.36680
H           3.50950         1.00440         1.10190
H           4.49330         1.34140        -2.57780
H           4.50190         2.06320        -0.95840
H           2.95510         1.74420        -1.79700
H          -0.69250         0.11290        -1.13430
H          -3.30880         1.49860        -1.92990
H          -2.64860         2.96380        -1.14520
H          -1.57970         1.90190        -2.07600

