%mem=24GB
%nprocshared=12
# B3LYP/6-31+G(d,p) NormalPNO TightSCF printbasis

 Mol2 8

0 1
C          -2.86220        -1.86600        -0.59970
C          -1.66280        -0.99380        -0.94870
C          -1.46500         0.17950         0.02760
C          -1.20470        -0.26360         1.44930
C          -0.08020        -0.75860         2.00130
C           1.22050        -1.06420         1.32310
S           2.36630         0.31530         1.61750
C           3.80230        -0.34150         0.73580
N          -0.39080         1.06700        -0.37830
C          -0.52130         1.93010        -1.44000
C           0.66290         2.83850        -1.63440
O          -1.51040         1.98510        -2.16290
H          -2.72890        -2.36670         0.36400
H          -2.99660        -2.64100        -1.36110
H          -3.78010        -1.27100        -0.55740
H          -0.76500        -1.62090        -0.99110
H          -1.80710        -0.60950        -1.96550
H          -2.38040         0.78630         0.03040
H          -2.06280        -0.13600         2.11000
H          -0.10650        -0.99510         3.06500
H           1.63650        -1.98670         1.74090
H           1.09940        -1.21030         0.24730
H           4.12370        -1.28640         1.18140
H           4.62590         0.37400         0.80570
H           3.56310        -0.49370        -0.31990
H           0.36280         1.23620         0.28010
H           1.57060         2.40760        -1.20260
H           0.45850         3.80180        -1.16020
H           0.83250         2.98340        -2.70500

