%mem=24GB
%nprocshared=12
# B3LYP/6-31+G(d,p) NormalPNO TightSCF printbasis

 Mol2 506

0 1
C          -0.64530         1.10340         2.37530
C          -1.06180         1.82160         1.09550
C          -0.69940         1.07870        -0.20550
C           0.78990         0.87140        -0.35410
C           1.44070        -0.25320        -0.70640
C           2.93030        -0.35600        -0.83440
S           3.61540        -1.31730         0.54570
C           3.14730        -2.98310         0.01460
N          -1.39510        -0.19370        -0.28530
C          -2.65220        -0.42960        -0.75670
C          -3.33710         0.65730        -1.53780
O          -3.18410        -1.51890        -0.55250
H           0.43910         0.96630         2.42590
H          -0.94600         1.69330         3.24730
H          -1.12290         0.12240         2.45710
H          -0.59620         2.81530         1.08700
H          -2.14570         1.98600         1.13170
H          -1.02120         1.70660        -1.04360
H           1.38700         1.76030        -0.14820
H           0.88130        -1.15200        -0.95310
H           3.39380         0.63610        -0.80990
H           3.20350        -0.81340        -1.79060
H           3.54710        -3.19450        -0.98050
H           3.56540        -3.71060         0.71570
H           2.06080        -3.09900         0.00970
H          -1.04420        -0.95200         0.28690
H          -4.31540         0.30030        -1.87340
H          -3.48960         1.53830        -0.91000
H          -2.74500         0.91600        -2.41950

