%mem=24GB
%nprocshared=12
# B3LYP/6-31+G(d,p) NormalPNO TightSCF printbasis

 Mol2 463

0 1
C          -1.13160        -0.92640        -3.04280
C          -1.63910        -0.66590        -1.63080
C          -0.54350        -0.14360        -0.68640
C          -0.04550         1.22190        -1.08420
C           1.23090         1.60930        -1.25870
C           2.47130         0.77900        -1.12500
S           3.46590         1.36040         0.27860
C           2.49040         0.66180         1.63430
N          -1.05180        -0.00390         0.66570
C          -1.10610        -1.07280         1.52880
C          -1.74740        -0.76240         2.85450
O          -0.67980        -2.19030         1.25860
H          -0.79740        -0.00360        -3.52650
H          -0.29670        -1.63440        -3.03420
H          -1.93120        -1.35370        -3.65630
H          -2.47780         0.04110        -1.67210
H          -2.04950        -1.60230        -1.23240
H           0.26840        -0.87690        -0.66540
H          -0.81680         1.97440        -1.24660
H           1.40620         2.64510        -1.55050
H           2.27830        -0.29090        -1.02080
H           3.06930         0.90100        -2.03440
H           3.02830         0.81390         2.57400
H           2.34330        -0.41190         1.49150
H           1.52320         1.16360         1.71130
H          -1.55040         0.84230         0.90470
H          -2.73810        -1.22290         2.88900
H          -1.12340        -1.16680         3.65630
H          -1.84920         0.31490         3.01210

