%mem=24GB
%nprocshared=12
# B3LYP/6-31+G(d,p) NormalPNO TightSCF printbasis

 Mol2 394

0 1
C          -0.69210        -2.42800        -0.06220
C           0.06660        -1.13270        -0.33190
C          -0.36940         0.02170         0.58040
C           0.48400         1.26800         0.60490
C           1.44250         1.76760        -0.19570
C           2.02770         1.25740        -1.47440
S           3.84070         1.17590        -1.34800
C           4.00170        -0.26700        -0.26790
N          -1.69760         0.49050         0.22610
C          -2.82870         0.08940         0.89560
C          -4.10670         0.65890         0.34060
O          -2.82280        -0.67620         1.85350
H          -0.28870        -3.23420        -0.68360
H          -0.59720        -2.72970         0.98570
H          -1.75480        -2.32690        -0.30090
H          -0.08720        -0.87070        -1.38490
H           1.13230        -1.33690        -0.18240
H          -0.38850        -0.35930         1.60980
H           0.25590         1.88150         1.48180
H           1.86090         2.72850         0.11450
H           1.65120         0.28890        -1.79460
H           1.78800         1.96960        -2.27120
H           5.06320        -0.46940        -0.10120
H           3.55480        -1.14620        -0.73870
H           3.53190        -0.08490         0.70170
H          -1.78650         1.07090        -0.59680
H          -4.71910         1.03310         1.16570
H          -4.64630        -0.12790        -0.19280
H          -3.91600         1.48820        -0.34620

