%mem=24GB
%nprocshared=12
# B3LYP/6-31+G(d,p) NormalPNO TightSCF printbasis

 Mol2 505

0 1
C          -1.52650        -2.00740        -0.29140
C          -1.51690        -1.26990         1.04450
C          -1.02430         0.19080         0.98530
C           0.44710         0.43240         0.74480
C           1.43200        -0.47500         0.62540
C           2.87180        -0.12640         0.39660
S           3.36390        -0.73680        -1.24140
C           5.09290        -0.20950        -1.21320
N          -1.72310         0.94800        -0.03750
C          -3.00010         1.41900         0.15870
C          -3.61020         2.06060        -1.05830
O          -3.60940         1.32480         1.21880
H          -0.54150        -2.02420        -0.76390
H          -1.84180        -3.04490        -0.13950
H          -2.23240        -1.54970        -0.99170
H          -0.91640        -1.83500         1.76760
H          -2.54370        -1.28020         1.43240
H          -1.26030         0.64850         1.95530
H           0.71690         1.48730         0.68340
H           1.21710        -1.53720         0.71060
H           3.48600        -0.60240         1.16730
H           3.03460         0.95520         0.44200
H           5.57370        -0.50080        -2.15080
H           5.62400        -0.68890        -0.38690
H           5.15830         0.87700        -1.11240
H          -1.37300         0.87750        -0.98400
H          -2.85200         2.30470        -1.80770
H          -4.33880         1.37420        -1.49720
H          -4.10790         2.98830        -0.76230

